* Deltares, D-Flow FM Version 1.2.75.65141M, Oct 11 2019, 10:46:47
* Source: https://svn.oss.deltares.nl/repos/delft3d/trunk/
* File creation date: 11:43:33, 01-11-2019
** INFO   : Command: "D:\projects\dflowutil\tests\dflowutil_test_data\DFM\dflowfm-cli.exe"
** INFO   : Opened file : unstruc.hlp
** INFO   : Closed file : unstruc.hlp
** INFO   : Opened file : ISOCOLOUR.hls
** INFO   : Using Local FileISOCOLOUR.hls
** INFO   : Closed file : ISOCOLOUR.hls
** INFO   : Opened file : ISOCOLOUR.hls
** INFO   : Using Local FileISOCOLOUR.hls
** INFO   : Closed file : ISOCOLOUR.hls
** INFO   :  MAXIMUM NUMBER OF LINKS         :            2
** INFO   :  MAXIMUM NUMBER OF NODES         :            0
** INFO   :  RESOLUTION GRAPHICS SCREEN      :         1600         990
** INFO   :  RESOLUTION TEXT     SCREEN      :          200          66
** INFO   :  NUMBER OF COLOURS AVAILABLE     :          256
** DEBUG  :            0  0.1000020      NOD(KMAX)
** DEBUG  :            6  0.7000140      XK (KMAX), YK (KMAX), ZK (KMAX), KC (KMAX), NMK (KMAX), RNOD(KMAX)
** INFO   : Load MDU-file                    (*.mdu)
** INFO   : Opened file : current_situation.mdu
** INFO   : Closed file : current_situation.mdu
** DEBUG  :            7  0.1000020      NOD(KMAX)
** DEBUG  :           12  0.7000140      XK (KMAX), YK (KMAX), ZK (KMAX), KC (KMAX), NMK (KMAX), RNOD(KMAX)
** DEBUG  :           12  1.4400000E-03  xsp(maxspl, maxsplen)
** DEBUG  :           12  1.4400000E-03  ysp(maxspl, maxsplen)
** DEBUG  :           12  1.4400000E-03  xsp2(maxspl, maxsplen)
** DEBUG  :           12  1.4400000E-03  ysp2(maxspl, maxsplen)
 Until here copy of previous diagnostic file
** WARNING: readMDUFile: [geometry] uniformtyp1dstreetinlets=-2 was in file, but not used. Check possible typo.
** WARNING: readMDUFile: [geometry] uniformtyp1droofgutterpipes=-2 was in file, but not used. Check possible typo.
** WARNING: readMDUFile: [numerics] jaorgsethu=1 was in file, but not used. Check possible typo.
** WARNING: readMDUFile: [physics] effectspiral=0 was in file, but not used. Check possible typo.
** WARNING: readMDUFile: [output] wrishp_enc=0 was in file, but not used. Check possible typo.
** WARNING: readMDUFile: [output] waterlevelclasses=0.0 was in file, but not used. Check possible typo.
** WARNING: readMDUFile: [output] waterdepthclasses=0.0 was in file, but not used. Check possible typo.
** DEBUG  : Detected old format for 1D ("CF-1.6 UGRID-1.0/Deltares-0.8") in 'stage4_spot_ortho_DFM_reint_net.nc'.
** INFO   : Network UGRID-File: No 1D-Mesh Present, Skipped 1D
** INFO   : Opened file : guayas.ldb
** INFO   : Closed file : guayas.ldb
** INFO   : Opened file : guayas_locations_obs.xyn
** INFO   : Closed file : guayas_locations_obs.xyn
** INFO   : Opened file : current_situation_obs.xyn
** INFO   : Closed file : current_situation_obs.xyn
** INFO   : Opened file : bridgepiers_3_thd.pli
** INFO   : Closed file : bridgepiers_3_thd.pli
** INFO   : Opened file : current_situation_thd.pli
** INFO   : Closed file : current_situation_thd.pli
** INFO   : Start of the computation time loop
** INFO   : Initializing flow model geometry...
** DEBUG  : Opened 'stage4_spot_ortho_DFM_reint_net.nc' as #     65536.
** WARNING: Could not read net cells from NetCDF file 'stage4_spot_ortho_DFM_reint_net.nc' (is not critical). Details follow:
** DEBUG  : NetCDF error: NetCDF: Invalid dimension ID or name (nNetElem)
** DEBUG  :           13  4.0599998E-02  netcell(numpx1)
** DEBUG  :           13  5.1956002E-02  lnn(numl)
** DEBUG  :           14  0.1039120      lne(2,numl)
** DEBUG  :           14  2.4869001E-02  xz(numc)
** DEBUG  :           14  2.4869001E-02  yz(numc)
** DEBUG  :           15  2.4869001E-02  xzw(numc)
** DEBUG  :           15  2.4869001E-02  yzw(numc)
** DEBUG  :           15  2.4869001E-02  ba(numc)
** INFO   : removing dry cells...
** INFO   : Opened file : current_situation_dry.xyz
** INFO   : merged 0 samples in .00 seconds.
** INFO   : Closed file : current_situation_dry.xyz
** INFO   : done in      0.02000 sec.
** INFO   : Finding crossed flowlinks...
** INFO   : done
** INFO   : thin dams with kdtree2, elapsed time:     0.10500    s.
** INFO   : Opened file : plant_loads_current_local.ext
** DEBUG  :           15  5.1956002E-02  xe (nx)
** DEBUG  :           16  5.1956002E-02  ye (nx)
** DEBUG  :           16  5.1956002E-02  xyen(2, nx)
** DEBUG  :           23  0.8832520      kce(nx), ke(nx), kez(nx), keu(nx), kes(nx), ketm(nx), kesd(nx), keuxy(nx), ket(nx), ken(nx), ke1d2d(nx), keg(nx), ked(nx), kep(nx), kedb(nx), keklep(nx), kevalv(nx), kegs(nx), kegen(nx), itpez(nx), itpenz(nx), itpeu(nx) , itpenu(nx), kew(nx), ftpet(nx)
** DEBUG  :           24  5.1956002E-02  ketr(nx,1)
** DEBUG  :           24  5.1956002E-02  kesf(1,nx)
** INFO   : Opened file : sea_boundary.pli
** INFO   : Closed file : sea_boundary.pli
** INFO   : boundary: 'sea_boundary.pli' opened 61 cells.
** INFO   : waterlevelbnd sea_boundary.pli      61 nr of open bndcells
** INFO   : Opened file : sea_boundary.pli
** INFO   : Closed file : sea_boundary.pli
** INFO   : boundary: 'sea_boundary.pli' opened 61 cells.
** INFO   : salinitybndsea_boundary.pli      61nr of salinity bndcells
** INFO   : Opened file : daule.pli
** INFO   : Closed file : daule.pli
** INFO   : boundary: 'daule.pli' opened 3 cells.
** INFO   : salinitybnddaule.pli       3nr of salinity bndcells
** INFO   : Opened file : babahoyo.pli
** INFO   : Closed file : babahoyo.pli
** INFO   : boundary: 'babahoyo.pli' opened 4 cells.
** INFO   : salinitybndbabahoyo.pli       4nr of salinity bndcells
** INFO   : Opened file : daule.pli
** INFO   : Closed file : daule.pli
** INFO   : boundary: 'daule.pli' opened 3 cells.
** INFO   : dischargebnd daule.pli       3 nr of open bndcells
** INFO   : Opened file : babahoyo.pli
** INFO   : Closed file : babahoyo.pli
** INFO   : boundary: 'babahoyo.pli' opened 4 cells.
** INFO   : dischargebnd babahoyo.pli       4 nr of open bndcells
** DEBUG  :           26  0.1988720      nd(ndx), bl(ndx), bai(ndx), bai_mor(ndx), ba_mor(ndx), kcs(ndx)
** DEBUG  :           29  9.1880001E-02  ln   (2,lnx)
** DEBUG  :           30  9.1880001E-02  lncn (2,lnx)
** DEBUG  :           30  9.1880001E-02  bob  (2,lnx)
** DEBUG  :           31  9.1880001E-02  bob0  (2,lnx)
** DEBUG  :           31  4.5940001E-02  dx   (  lnx)
** DEBUG  :           32  4.5940001E-02  dxi  (  lnx)
** DEBUG  :           32  4.5940001E-02  wu   (  lnx)
** DEBUG  :           32  4.5940001E-02  wu_mor (  lnx)
** DEBUG  :           33  4.5940001E-02  wui  (  lnx)
** DEBUG  :           33  4.5940001E-02  kcu  (  lnx)
** DEBUG  :           34  4.5940001E-02  csu  (  lnx)
** DEBUG  :           34  4.5940001E-02  snu  (  lnx)
** DEBUG  :           34  4.5940001E-02  acl  (  lnx)
** DEBUG  :           35  4.5940001E-02  acn  (2,lnx)
** DEBUG  :           35  4.5940001E-02  iadv   (lnx)
** DEBUG  :           35  4.5940001E-02  teta   (lnx)
** DEBUG  :           36  4.5940001E-02  ibot   (lnx)
** DEBUG  :           37  0.1378200      xu(lnx), yu(lnx) , blu(lnx)
** DEBUG  :           37  5.1956002E-02  ln2lne (nex)
** DEBUG  :           38  5.1956002E-02  lne2ln (nex)
** DEBUG  : addexternalboundarypoints: added 0 bnd points for SOBEK1D-FM2D connections.
** DEBUG  :           39  2.7067000E-02   cn (numk)
** DEBUG  :           39  2.7067000E-02  ucnx(numk)
** DEBUG  :           39  2.7067000E-02  ucny(numk)
** DEBUG  :           39  2.7067000E-02  ban (numk)
** INFO   : setbedlevelfromextfile: Using bedlevel as specified in net-file.
** DEBUG  :           40  4.5940001E-02  wcnx3(lnx)
** DEBUG  :           40  4.5940001E-02  wcny3(lnx)
** DEBUG  :           40  4.5940001E-02  wcnx4(lnx)
** DEBUG  :           41  4.5940001E-02  wcny4(lnx)
** DEBUG  :           41  8.1201002E-02  wcnxy(3,numk)
** DEBUG  :           42  2.7067000E-02  jacorner(numk)
** DEBUG  :           42  5.8599999E-03  cscnw(nrcnw)
** DEBUG  :           42  5.8599999E-03  sncnw(nrcnw)
** DEBUG  :           42  5.8599999E-03   kcnw(nrcnw)
** DEBUG  :           42  1.1720000E-02   nwalcnw(2,nrcnw)
** DEBUG  :           42  5.8599999E-03   sfcnw(nrcnw)
** DEBUG  :           42  2.4859000E-02  numlimdt(ndx)
** DEBUG  :           43  9.9705003E-02  walls(17,nw)
** DEBUG  :           43  4.5940001E-02  wcx1(lnx)
** DEBUG  :           44  4.5940001E-02  wcy1(lnx)
** DEBUG  :           44  4.5940001E-02  wcx2(lnx)
** DEBUG  :           44  4.5940001E-02  wcy2(lnx)
** DEBUG  :           45  4.9718000E-02  wcxy (2,ndx)
** DEBUG  :           46  9.1880001E-02  wcL  (2,Lnx)
** DEBUG  :           46  2.4859000E-02  wc     (ndx)
** DEBUG  :           47  9.7736999E-02  banf(mxban)
** DEBUG  :           48  9.7736999E-02  nban(4,mxban)
** DEBUG  :           49  9.7736999E-02  rr(mxban), nr(mxban)
** DEBUG  :           50  9.7736999E-02  banh (mxban)
** DEBUG  :           50  9.7736999E-02  nbanh(4,mxban)
** INFO   : Done initializing flow model geometry.
** DEBUG  :           51  4.9718000E-02  s0  (ndx) , s1  (ndx)
** DEBUG  :           51  4.9718000E-02  a0  (ndx) , a1  (ndx)
** DEBUG  :           52  4.9718000E-02  hs  (ndx) , s00 (ndx)
** DEBUG  :           52  2.4859000E-02  cfs (ndx)
** DEBUG  :           52  2.4859000E-02  kbot (ndx)
** DEBUG  :           52  2.4859000E-02  ktop (ndx)
** DEBUG  :           52  2.4859000E-02  ktop0(ndx)
** DEBUG  :           53  2.4859000E-02  kmxn (ndx)
** DEBUG  :           53  4.5940001E-02  Lbot (Lnx)
** DEBUG  :           53  4.5940001E-02  Ltop (Lnx)
** DEBUG  :           54  4.5940001E-02  kmxL (Lnx)
** DEBUG  :           54  4.5940001E-02  ustb  (lnx)
** DEBUG  :           54  4.5940001E-02  ustw  (lnx)
** DEBUG  :           55  2.4859000E-02  laydefnr(ndx)
** DEBUG  :           55  4.9718000E-02  ucx (ndkx) , ucy (ndkx)
** DEBUG  :           55  4.9718000E-02  uqcx(ndkx) , uqcy(ndkx)
** DEBUG  :           56  4.9718000E-02  ucxq(ndkx) , ucyq(ndkx)
** DEBUG  :           56  4.9718000E-02  qin (ndkx) , vih (ndkx)
** DEBUG  :           57  4.9718000E-02  dvxc(ndkx) , dvyc(ndkx)
** DEBUG  :           57  2.4859000E-02  squ (ndkx)
** DEBUG  :           57  2.4859000E-02  sqi (ndkx)
** DEBUG  :           57  2.4859000E-02  sq  (ndkx)
** DEBUG  :           57  2.4859000E-02  sqa (ndkx)
** DEBUG  :           58  2.4859000E-02  vol0(ndkx)
** DEBUG  :           58  2.4859000E-02  vol1(ndkx)
** DEBUG  :           58  2.4859000E-02  vol1_f(ndkx)
** DEBUG  :           58  2.4859000E-02  volerror(ndkx)
** DEBUG  :           58  2.4859000E-02  dtcell(ndkx)
** DEBUG  :           59  2.4859000E-02  rho (ndkx)
** DEBUG  :           59  4.5940001E-02  dpbdx0 (lnkx)
** DEBUG  :           59  2.4859000E-02  workx (ndkx)
** DEBUG  :           59  2.4859000E-02  worky (ndkx)
** DEBUG  :           60  4.5940001E-02  work0 (0:max(kmx,1),max(ndx,lnx))
** DEBUG  :           60  4.5940001E-02  work1 (max(kmx,1),max(ndx,lnx))
** DEBUG  :           60  2.4859000E-02  tidep (1,ndx)
** DEBUG  :           61  4.5940001E-02  z0ucur(lnx)
** DEBUG  :           61  4.5940001E-02  z0urou(lnx)
** DEBUG  :           61  4.5940001E-02  cfuhi(lnx)
** DEBUG  :           62  4.5940001E-02  frcu (lnx)
** DEBUG  :           62  4.5940001E-02  frcu_mor (lnx)
** DEBUG  :           63  4.5940001E-02  ifrcutp(lnx)
** DEBUG  :           63  4.5940001E-02  wdsu  (lnx)
** DEBUG  :           63  4.5940001E-02  u0   (lnkx)
** DEBUG  :           64  4.5940001E-02  u1   (lnkx)
** DEBUG  :           64  4.5940001E-02  q1   (lnkx)
** DEBUG  :           64  4.5940001E-02  qa   (lnkx)
** DEBUG  :           65  4.5940001E-02  v    (lnkx)
** DEBUG  :           65  4.5940001E-02  ucxu (lnkx)
** DEBUG  :           65  4.5940001E-02  ucyu (lnkx)
** DEBUG  :           66  4.5940001E-02  hu   (lnkx)
** DEBUG  :           66  4.5940001E-02  huvli(lnkx)
** DEBUG  :           67  4.5940001E-02  au   (lnkx)
** DEBUG  :           67  4.5940001E-02  viu  (lnkx)
** DEBUG  :           67  4.5940001E-02  vicLu(lnkx)
** DEBUG  :           68  4.5940001E-02  suu  (lnkx)
** DEBUG  :           68  4.5940001E-02  advi (lnkx)
** DEBUG  :           68  4.5940001E-02  adve (lnkx)
** DEBUG  :           69  4.5940001E-02  plotlin(max(lnkx,ndkx))
** DEBUG  :           69  2.4859000E-02  czs(ndx)
** DEBUG  :           69  2.4859000E-02  bb   (ndx )
** DEBUG  :           69  2.4859000E-02  dd   (ndx )
** DEBUG  :           70  2.4859000E-02  fu   (lnkx)
** DEBUG  :           70  2.4859000E-02  ru   (lnkx)
** DEBUG  :           70  2.4859000E-02  sa1 (ndkx)
** DEBUG  :           70  2.4859000E-02  rich(lnkx)
** INFO   : List of constituents defined in the model
** INFO   :        1 salt
** INFO   : Finding flow nodes...
** INFO   : done in      0.01200 sec.
** INFO   : Could not find flowcell for point #16 (Puna). Discarding.
** INFO   : Could not find flowcell for point #18 (Pto. Nuevo). Discarding.
** INFO   : Could not find flowcell for point #56 (P11). Discarding.
** INFO   : Could not find flowcell for point #89 (R. Guayas 26). Discarding.
** DEBUG  :           71  4.5940001E-02  fcori(lnx)
** INFO   : Start initializing external forcings...
** INFO   : External Forcing or Initialising 'discharge_salinity_temperature_sorsin' from file 'L_Orquideas.pli'.
** INFO   : Opened file : L_Orquideas.pli
** INFO   : Closed file : L_Orquideas.pli
** INFO   : Could not find flowcell for point #1 (L_Orquideas sink). Discarding.
** INFO   : External Forcing or Initialising 'discharge_salinity_temperature_sorsin' from file 'L_Guayacanes-Samanes.pli'.
** INFO   : Opened file : L_Guayacanes-Samanes.pli
** INFO   : Closed file : L_Guayacanes-Samanes.pli
** INFO   : Could not find flowcell for point #1 (L_Guayacanes-Samanes sink). Discarding.
** INFO   : External Forcing or Initialising 'discharge_salinity_temperature_sorsin' from file 'L_Alborada-Sauces.pli'.
** INFO   : Opened file : L_Alborada-Sauces.pli
** INFO   : Closed file : L_Alborada-Sauces.pli
** INFO   : Could not find flowcell for point #1 (L_Alborada-Sauces sink). Discarding.
** INFO   : External Forcing or Initialising 'discharge_salinity_temperature_sorsin' from file 'Bypass_Sauces.pli'.
** INFO   : Opened file : Bypass_Sauces.pli
** INFO   : Closed file : Bypass_Sauces.pli
** INFO   : Could not find flowcell for point #1 (Bypass_Sauces sink). Discarding.
** INFO   : External Forcing or Initialising 'discharge_salinity_temperature_sorsin' from file 'Bypass_Progreso.pli'.
** INFO   : Opened file : Bypass_Progreso.pli
** INFO   : Closed file : Bypass_Progreso.pli
** INFO   : Could not find flowcell for point #1 (Bypass_Progreso sink). Discarding.
** INFO   : External Forcing or Initialising 'discharge_salinity_temperature_sorsin' from file 'Bypass_Pradera.pli'.
** INFO   : Opened file : Bypass_Pradera.pli
** INFO   : Closed file : Bypass_Pradera.pli
** INFO   : Could not find flowcell for point #1 (Bypass_Pradera sink). Discarding.
** INFO   : External Forcing or Initialising 'discharge_salinity_temperature_sorsin' from file 'EB_Progreso.pli'.
** INFO   : Opened file : EB_Progreso.pli
** INFO   : Closed file : EB_Progreso.pli
** INFO   : Could not find flowcell for point #1 (EB_Progreso sink). Discarding.
** INFO   : External Forcing or Initialising 'discharge_salinity_temperature_sorsin' from file 'EB_Pradera.pli'.
** INFO   : Opened file : EB_Pradera.pli
** INFO   : Closed file : EB_Pradera.pli
** INFO   : Could not find flowcell for point #1 (EB_Pradera sink). Discarding.
** INFO   : External Forcing or Initialising 'discharge_salinity_temperature_sorsin' from file 'Guasmo_H.pli'.
** INFO   : Opened file : Guasmo_H.pli
** INFO   : Closed file : Guasmo_H.pli
** INFO   : Could not find flowcell for point #1 (Guasmo_H sink). Discarding.
** INFO   : External Forcing or Initialising 'discharge_salinity_temperature_sorsin' from file 'Mucho_Lote.pli'.
** INFO   : Opened file : Mucho_Lote.pli
** INFO   : Closed file : Mucho_Lote.pli
** INFO   : Could not find flowcell for point #1 (Mucho_Lote sink). Discarding.
** WARNING: TO point of Mucho_Lote coincides with TO   point of L_Orquideas
** INFO   : External Forcing or Initialising 'discharge_salinity_temperature_sorsin' from file 'Toma_i.pli'.
** INFO   : Opened file : Toma_i.pli
** INFO   : Closed file : Toma_i.pli
** INFO   : Could not find flowcell for point #1 (Toma_i source). Discarding.
** INFO   : External Forcing or Initialising 'discharge_salinity_temperature_sorsin' from file 'Toma_o.pli'.
** INFO   : Opened file : Toma_o.pli
** INFO   : Closed file : Toma_o.pli
** INFO   : Could not find flowcell for point #1 (Toma_o sink). Discarding.
** INFO   : External Forcing or Initialising 'discharge_salinity_temperature_sorsin' from file 'NewWPCP.pli'.
** INFO   : Opened file : NewWPCP.pli
** INFO   : Closed file : NewWPCP.pli
** INFO   : Could not find flowcell for point #1 (NewWPCP sink). Discarding.
** INFO   : External Forcing or Initialising 'initialwaterlevel' from file 'ini_waterlevel_20020722.xyz'.
** DEBUG  :           71  2.4859000E-02  zh(nx)
** INFO   : Opened file : ini_waterlevel_20020722.xyz
** DEBUG  :           71  3.0997001E-02  XS(NSMAX),YS(NSMAX),ZS(NSMAX)
** DEBUG  :           71  3.0997001E-02  ipsam(NSMAX)
** DEBUG  :           72  5.1661998E-02  sample_coords(NTREEDIM,N)
** INFO   : merged 962 samples in .02 seconds.
** INFO   : Closed file : ini_waterlevel_20020722.xyz
** DEBUG  :           62  -1.243450      idum(50*Ns)
** DEBUG  :           65  0.4476720      INDX(3,NSM)
** DEBUG  :           68  0.2984480      edgeindx(2,NSM)
** DEBUG  :           71  0.4476720      triedge(3,NSM)
** DEBUG  :           72  9.9324003E-02  xx(numtri), yy(numtri)
** DEBUG  :           72  4.9662001E-02  imask(numtri)
** DEBUG  :           74  0.1490600      LNtri(2,numedge)
** DEBUG  :           75  0.1489860      sample_coords(NTREEDIM,N)
** INFO   : External Forcing or Initialising 'initialsalinity' from file 'ini_salinity_20020722.xyz'.
** DEBUG  :           75  2.4859000E-02  zh(nx)
** INFO   : Opened file : ini_salinity_20020722.xyz
** DEBUG  :           75  3.0997001E-02  XS(NSMAX),YS(NSMAX),ZS(NSMAX)
** DEBUG  :           76  3.0997001E-02  ipsam(NSMAX)
** DEBUG  :           76  5.1661998E-02  sample_coords(NTREEDIM,N)
** INFO   : merged 962 samples in .02 seconds.
** INFO   : Closed file : ini_salinity_20020722.xyz
** DEBUG  :           66  -1.243450      idum(50*Ns)
** DEBUG  :           70  0.4476720      INDX(3,NSM)
** DEBUG  :           72  0.2984480      edgeindx(2,NSM)
** DEBUG  :           76  0.4476720      triedge(3,NSM)
** DEBUG  :           76  9.9324003E-02  xx(numtri), yy(numtri)
** DEBUG  :           77  4.9662001E-02  imask(numtri)
** DEBUG  :           78  0.1490600      LNtri(2,numedge)
** DEBUG  :           79  0.1489860      sample_coords(NTREEDIM,N)
** INFO   : Closed file : plant_loads_current_local.ext
** INFO   : Done initializing external forcings.
** DEBUG  :           80  4.5940001E-02  klnup(6,lnx)
** DEBUG  :           80  4.5940001E-02  slnup(6,lnx)
** DEBUG  :           80  2.4859000E-02  ij(nodtot)
** DEBUG  :           80  2.4859000E-02  nodbr2(nodtot)
** DEBUG  :           80  2.4859000E-02  nbrstk(nodtot)
** DEBUG  :           81  2.4859000E-02  nodstk(nodtot)
** DEBUG  :           81  2.4859000E-02  noel(nodtot)
** DEBUG  :           81  2.4859000E-02  noel0(nodtot)
** DEBUG  :           81  2.4859000E-02  ia(nodtot)
** DEBUG  :           81  2.4859000E-02  row(nodtot)
** DEBUG  :           82  4.5940001E-02  lv2(lintot)
** DEBUG  :           82  2.4859000E-02  jagauss(nodtot)
** DEBUG  :           85  9.7117998E-02  ccr(0:ijstck)
** DEBUG  :           86  9.7117998E-02  bbl(0:ijstck)
** DEBUG  :           86  4.9718000E-02  bbr(nodtot), ddr(nodtot)
** DEBUG  :           87  0.1242950      d0(nodtot), zkr(nodtot),pk(0:nodtot), apk(nodtot), rk(nodtot)
** INFO   : nogauss , nocg :          15141          9715
** INFO   : Finding flow nodes...
** INFO   : done in      0.01900 sec.
** INFO   : Could not find flowcell for point #16 (Puna). Discarding.
** INFO   : Could not find flowcell for point #18 (Pto. Nuevo). Discarding.
** INFO   : Could not find flowcell for point #56 (P11). Discarding.
** INFO   : Could not find flowcell for point #89 (R. Guayas 26). Discarding.
** INFO   : ** Model initialization was successful **
** INFO   : * Active Model definition:
# Generated on 11:44:13, 01-11-2019
# Deltares, D-Flow FM Version 1.2.75.65141M, Oct 11 2019, 10:46:47
# Source:https://svn.oss.deltares.nl/repos/delft3d/trunk/

[General]
Program                                   = D-Flow FM
Version                                   = 1.2.75.65141M
FileVersion                               = 1.09                # File format version (do not edit this)
AutoStart                                 = 0                   # Autostart simulation after loading MDU (0: no, 1: autostart, 2: autostartstop)
ModelSpecific                             =                                                                 # Optional 'model specific ID', to enable certain custom runtime function calls (instead of via MDU name).
PathsRelativeToParent                     = 0                   # Default: 0. Whether or not (1/0) to resolve file names (e.g. inside the *.ext file) relative to their direct parent, instead of to the toplevel MDU working dir.

[geometry]
NetFile                                   = stage4_spot_ortho_dfm_reint_net.nc# Unstructured grid file *_net.nc
GridEnclosureFile                         =                     # Enclosure file to clip outer parts from the grid *.pol
BedlevelFile                              =                     # Bedlevels points file e.g. *.xyz, only needed for bedlevtype not equal 3
DryPointsFile                             = current_situation_dry.xyz# Dry points file *.xyz (third column dummy z values), or dry areas polygon file *.pol (third column 1/-1: inside/outside)
CrossDefFile                              =                     # 1D Cross section definition file (*.ini)
CrossLocFile                              =                     # 1D Cross section location file (*.ini)
StorageNodeFile                           =                     # 1D Storage node/manhole file (*.ini)
frictFile                                 =                     # 1D Roughness files (*.ini)
StructureFile                             =                     # Hydraulic structure file (*.ini)
WaterLevIniFile                           =                     # Initial water levels sample file *.xyz
LandBoundaryFile                          = guayas.ldb          # Land boundaries file *.ldb, used for visualization
ThinDamFile                               = bridgepiers_3_thd.pli current_situation_thd.pli# Polyline file *_thd.pli, containing thin dams
Cutcelllist                               =                     # File with names of cutcell polygons, e.g. cutcellpolygons.lst
FixedWeirFile                             =                     # Polyline file *_fxw.pliz, containing fixed weirs with rows x, y, crest level, left ground level, right ground level
PillarFile                                =                     # Polyline file *_pillar.pliz, containing four colums with x, y, diameter and Cd coefficient
Gulliesfile                               =                     # Polyline file *_gul.pliz, containing lowest bed level along talweg x, y, z level
Roofsfile                                 =                     # Polyline file *_rof.pliz, containing roofgutter heights x, y, z level
VertplizFile                              =                     # Vertical layering file *_vlay.pliz with rows x, y, Z, first Z, nr of layers, second Z, layer type
ProflocFile                               =                     # Channel profile location file *_proflocation.xyz with rows x, y, z, profile number ref
ProfdefFile                               =                     # Channel profile definition file *_profdefinition.def with definition for all profile numbers
ProfdefxyzFile                            =                     # Channel profile definition file _profdefinition.def with definition for all profile numbers
IniFieldFile                              =                     # Initial values and parameter fields file
Uniformwidth1D                            = 2.                  # Uniform width for channel profiles not specified by profloc
Uniformheight1D                           = 3.                  # Uniform height for channel profiles not specified by profloc
Uniformtyp1Dstreetinlets                  = -2                  # Uniform type street inlets
Uniformtyp1Droofgutterpipes               = -2                  # Uniform type roof gutter pipes
ManholeFile                               =                     # File *.ini containing manholes
PipeFile                                  =                     # File *.pliz containing pipe-based 'culverts'
ShipdefFile                               =                     # File *.shd containing ship definitions
WaterLevIni                               = 1.29                # Initial water level at missing s0 values
waterdepthini1D                           = 0.                  # Initial waterdepth in 1D
BedlevUni                                 = -7.                 # Uniform bed level used at missing z values if BedlevType > 2
BedlevType                                = 3                   # Bathymetry specification
                                                                # 1: at cell centers (from BathymetryFile)
                                                                # 2: at faces (from BathymetryFile)
                                                                # 3: at nodes, face levels mean of node values
                                                                # 4: at nodes, face levels min. of node values
                                                                # 5: at nodes, face levels max. of node values
                                                                # 6: at nodes, face levels max. of cell-center values
Blmeanbelow                               = -999.               # If not -999d0, below this level the cell center bed level is the mean of surrouding net nodes
Blminabove                                = -999.               # If not -999d0, above this level the cell center bed level is the min. of surrouding net nodes
Groundlayerthickness                      = -999.               # Only in pipes: groundlayer thickness (m)
PartitionFile                             =                     # Domain partition polygon file *_part.pol for parallel run
AngLat                                    = -2.                 # Angle of latitude S-N (deg), 0: no Coriolis
AngLon                                    = 0.                  # Angle of longitude E-W (deg), 0: Greenwich, used in solar heat flux computation.
Conveyance2D                              = -1                  # -1: R=HU,0: R=H, 1: R=A/P, 2: K=analytic-1D conv, 3: K=analytic-2D conv
Slotw2D                                   = 0.                  # -
Sillheightmin                             = 0.                  # Weir treatment only if both sills larger than this value (m)
Makeorthocenters                          = 0                   # Switch from circumcentres to orthocentres in geominit (i>=1: number of iterations, 0: do not use)
Dcenterinside                             = 1.                  # Limit cell center (1.0: in cell, 0.0: on c/g)
Bamin                                     = 1.d-6               # Minimum grid cell area, in combination with cut cells
OpenBoundaryTolerance                     = 3.                  # Search tolerance factor between boundary polyline and grid cells, in cell size units
AllowBndAtBifurcation                     = 0                   # Allow 1d boundary node when connecting branch leads to bifurcation (1: yes, 0: no)
CreateLinks1D2D                           = 0                   # Ruecksichtslos create links between 1D nodes and 2D cells when initializing model (1: yes, 0: no)
RenumberFlowNodes                         = 1                   # Renumber the flow nodes (1: yes, 0: no)
Kmx                                       = 0                   # Maximum number of vertical layers
Layertype                                 = 1                   # Vertical layer type (1: all sigma, 2: all z, 3: use VertplizFile)
Numtopsig                                 = 0                   # Number of sigma layers in top of z-layer model
SigmaGrowthFactor                         = 1.                  # Layer thickness growth factor from bed up
StretchType                               = -1                  # Type of layer stretching, 0 = uniform, 1 = user defined, 2 = fixed level double exponential

[numerics]
CFLMax                                    = 0.7                 # Maximum Courant number
Lincontin                                 = 0                   # Default 0; Set to 1 for linearizing d(Hu)/dx; link to AdvecType
AdvecType                                 = 33                  # Advection type (0: none, 1: Wenneker, 2: Wenneker q(uio-u), 3: Perot q(uio-u), 4: Perot q(ui-u), 5: Perot q(ui-u) without itself)
TimeStepType                              = 2                   # Time step handling (0: only transport, 1: transport + velocity update, 2: full implicit step-reduce, 3: step-Jacobi, 4: explicit)
Icoriolistype                             = 5                   # 0=No, 1=yes, if jsferic then spatially varying, if icoriolistype==6 then constant (anglat)
Limtyphu                                  = 0                   # Limiter type for waterdepth in continuity eqn. (0: none, 1: minmod, 2: van Leer, 3: Kooren, 4: monotone central)
Limtypmom                                 = 4                   # Limiter type for cell center advection velocity (0: none, 1: minmod, 2: van Leer, 3: Kooren, 4: monotone central)
Limtypsa                                  = 4                   # Limiter type for salinity transport (0: none, 1: minmod, 2: van Leer, 3: Kooren, 4: monotone central)
TransportMethod                           = 1                   # Transport method (0: Herman's method, 1: transport module)
TransportTimestepping                     = 1                   # Timestepping method in Transport module, 0 = global, 1 = local (default)
TransportAutoTimestep                     = 0                   # Auto Timestep in Transport module, 0 = limitation of diffusion, but no limitation of time-step due to diffusion, 1 = no limitation of diffusion, but limitation of time step due to diffusion, 2: no limitation of diffusion and no limita
Vertadvtypsal                             = 6                   # Vertical advection type for salinity (0: none, 1: upwind explicit, 2: central explicit, 3: upwind implicit, 4: central implicit, 5: central implicit but upwind for neg. stratif., 6: higher order explicit, no Forester)
Vertadvtyptem                             = 6                   # Vertical advection type for temperature (0: none, 1: upwind explicit, 2: central explicit, 3: upwind implicit, 4: central implicit, 5: central implicit but upwind for neg. stratif., 6: higher order explicit, no Forester)
Vertadvtypmom                             = 3                   # Vertical advection type for u1: 0: No, 3: Upwind implicit, 4: Central implicit, 5: QUICKEST implicit., 6: centerbased upwind expl
Vertadvtypmom3onbnd                       = 0                   # vert. adv. u1 bnd UpwimpL: 0=follow javau , 1 = on bnd, 2= on and near bnd
Cffacver                                  = 0.                  # Factor for including (1-CFL) in HO term vertical   (0d0: no, 1d0: yes)
Jarhoxu                                   = 0                   # Inlcude density gradient in advection term (0: no, 1: yes, 2: Also in barotrop and baroclin pressure term)
Horadvtypzlayer                           = 0                   # Horizontal advection treatment of z-layers (1: default, 2: sigma-like)
Zlayercenterbedvel                        = 1                   # reconstruction of center velocity at half closed bedcells (0=no, 1: copy bed link velocities)
Zlayeratubybob                            = 0                   # Lowest connected cells governed by bob instead of by bL L/R
Icgsolver                                 = 3                   # Solver type (1: sobekGS_OMP, 2: sobekGS_OMPthreadsafe, 3: sobekGS, 4: sobekGS + Saadilud, 5: parallel/global Saad, 6: parallel/Petsc, 7: parallel/GS)
Maxdegree                                 = 6                   # Maximum degree in Gauss elimination
Noderivedtypes                            = 0                   # 0=use der. types. , 1 = less, 2 = lesser, 5 = also dealloc der. types
FixedWeirScheme                           = 0                   # Fixed weir scheme (0: none, 1: compact stencil, 2: whole tile lifted, full subgrid weir + factor)
FixedWeirContraction                      = 1.                  # Fixed weir flow width contraction factor
Fixedweirfrictscheme                      = 1                   # Fixed weir friction scheme (0: friction based on hu, 1: friction based on subgrid weir friction scheme)
Fixedweirtopwidth                         = 3.                  # Uniform width of the groyne part of fixed weirs
Fixedweirtopfrictcoef                     = -999.               # Uniform friction coefficient of the groyne part of fixed weirs
Fixedweirtalud                            = 4.                  # Uniform talud slope of fixed weirs
Izbndpos                                  = 0                   # Position of z boundary (0: D3Dflow, 1: on net boundary, 2: on specified polyline)
Tlfsmo                                    = 0.                  # Fourier smoothing time (s) on water level boundaries
Logprofatubndin                           = 1                   # ubnds inflow: 0=uniform U1, 1 = log U1, 2 = user3D
Logprofkepsbndin                          = 0                   # inflow: 0=0 keps, 1 = log keps inflow, 2 = log keps in and outflow
Slopedrop2D                               = 0.                  # Apply drop losses only if local bed slope > Slopedrop2D, (<=0: no drop losses)
Drop3D                                    = 1.                  # Apply droplosses in 3D if z upwind below bob + 2/3 hu*drop3D
Chkadvd                                   = 0.1                 # Check advection terms if depth < chkadvdp, => less setbacks
Trsh_u1Lb                                 = 0.                  # 2D bedfriction in 3D below this threshold (m)
Epshstem                                  = 1.d-3               # Only compute heatflx + evap if depth > epshstem
Zwsbtol                                   = 0.                  # tolerance for zws(kb-1) at bed
Keepzlayeringatbed                        = 1                   #  bedlayerthickness = zlayerthickness at bed 0 or 1
Teta0                                     = 0.55                # Theta of time integration (0.5 < theta < 1)
Qhrelax                                   = 1.d-2               # Relaxation on Q-h open boundaries
Jbasqbnddownwindhs                        = 0                   # Water depth scheme at discharge boundaries (0: original hu, 1: downwind hs)
cstbnd                                    = 0                   # Delft-3D type velocity treatment near boundaries for small coastal models (1: yes, 0: no)
Maxitverticalforestersal                  = 0                   # Forester iterations for salinity (0: no vertical filter for salinity, > 0: max nr of iterations)
Maxitverticalforestertem                  = 0                   # Forester iterations for temperature (0: no vertical filter for temperature, > 0: max nr of iterations)
Turbulencemodel                           = 3                   # Turbulence model (0: none, 1: constant, 2: algebraic, 3: k-epsilon, 4: k-tau)
Turbulenceadvection                       = 3                   # Turbulence advection (0: none, 3: horizontally explicit and vertically implicit)
Eddyviscositybedfacmax                    = 0.                  # Limit eddy viscosity at bed )
AntiCreep                                 = 0                   # Include anti-creep calculation (0: no, 1: yes)
Barocterm                                 = 2                   # (original = 1, current = 2 )
Maxwaterleveldiff                         = 0.                  # upper bound (in m) on water level changes (<= 0: no bounds). Run will abort when violated.
Maxvelocitydiff                           = 0.                  # upper bound (in m/s) on velocity changes (<= 0: no bounds). Run will abort when violated.
MinTimestepBreak                          = 0.                  # smallest allowed timestep (in s), checked on a sliding average of several timesteps. Run will abort when violated.
Epshu                                     = 1.d-4               # Threshold water depth for wet and dry cells
SobekDFM_umin                             = 0.                  # Minimal velocity treshold for weir losses in Sobek-DFM coupling.
SobekDFM_umin_method                      = 0                   # Method for minimal velocity treshold for weir losses in Sobek-DFM coupling.
SobekDFM_Minimal_1d2d_Embankment          = 1.d-2               # Minimal crest height of 1D2D SOBEK-DFM embankments.
sobekDFM_relax                            = 0.1                 # Relaxation factor for SOBEK-DFM coupling algorithm.
jaupwindsrc                               = 1                   # 1st-order upwind advection at sources/sinks (1) or higher-order (0)
jasfer3D                                  = 0                   # corrections for spherical coordinates
HorizontalMomentumFilter                  = 0                   # apply horizontal filter (1:explicit, 2,3:implicit) or not (0)
filterorder                               = 2                   # order of filter (1, 2 or 3)
checkerboardmonitor                       = 0                   # compute and output checkerboard monitor (1) or not (0)
LocSaltLev                                = 1.                  # salinity level for case of lock exchange
LocSaltMin                                = 5.                  # minimum salinity for case of lock exchange
LocSaltMax                                = 10.                 # maximum salinity for case of lock exchange
Numlimdt_baorg                            = 0                   # if previous numlimdt > Numlimdt_baorg keep original cell area ba in cutcell
Baorgfracmin                              = 0.                  # Cell area = max(orgcellarea*Baorgfracmin, cutcell area)

[physics]
UnifFrictCoef                             = 1.5d-2              # Uniform friction coefficient (0: no friction)
UnifFrictType                             = 1                   # Uniform friction type (0: Chezy, 1: Manning, 2: White-Colebrook, 3: idem, WAQUA style)
UnifFrictCoef1D                           = 1.5d-2              # Uniform friction coefficient in 1D links (0: no friction)
UnifFrictCoef1D2D                         = 1.5d-2              # Uniform friction coefficient in 1D links (0: no friction)
UnifFrictCoefLin                          = 0.                  # Uniform linear friction coefficient (0: no friction)
UnifFrictCoef1DgrLay                      = 5.d-2               # Uniform ground layer friction coefficient for ocean models (m/s) (0: no friction)
Umodlin                                   = 0.                  # Linear friction umod, for ifrctyp=4,5,6
Vicouv                                    = 10.                 # Uniform horizontal eddy viscosity (m2/s)
Dicouv                                    = 100.                # Uniform horizontal eddy diffusivity (m2/s)
Vicoww                                    = 5.d-5               # Uniform vertical eddy viscosity (m2/s)
Dicoww                                    = 5.d-5               # Uniform vertical eddy diffusivity (m2/s)
Vicwminb                                  = 0.                  # Minimum visc in prod and buoyancy term (m2/s)
Xlozmidov                                 = 0.                  # Ozmidov length scale (m), default=0.0, no contribution of internal waves to vertical diffusion
Smagorinsky                               = 0.                  # Smagorinsky factor in horizontal turbulence, e.g. 0.15
Elder                                     = 1.                  # Elder factor in horizontal turbulence
irov                                      = 0                   # 0=free slip, 1 = partial slip using wall_ks
wall_ks                                   = 0.                  # Wall roughness type (0: free slip, 1: partial slip using wall_ks)
Rhomean                                   = 1000.               # Average water density (kg/m3)
Idensform                                 = 2                   # Density calulation (0: uniform, 1: Eckart, 2: Unesco, 3: baroclinic case)
Ag                                        = 9.81                # Gravitational acceleration
TidalForcing                              = 0                   # Tidal forcing, if jsferic=1 (0: no, 1: yes)
SelfAttractionLoading                     = 0                   # Self attraction and loading (0=no, 1=yes, 2=only self attraction)
SelfAttractionLoading_correct_wl_with_ini = 0                   # correct water level with initial water level in Self attraction and loading (0=no, 1=yes)
ITcap                                     = 0.                  # Upper limit on internal tides dissipation (W/m^2)
Doodsonstart                              = 55.565              # TRIWAQ: 55.565, D3D: 57.555
Doodsonstop                               = 375.575             # TRIWAQ: 375.575, D3D: 275.555
Doodsoneps                                = 0.                  # TRIWAQ = 0.0  400 cmps , D3D = 0.03   60 cmps
VillemonteCD1                             = 1.                  # Calibration coefficient for Villemonte. Default = 1.0.  NB. For Bloemberg data set 0.8 is recommended.
VillemonteCD2                             = 10.                 # Calibration coefficient for Villemonte. Default = 10.0. NB. For Bloemberg data set 0.8 is recommended.
Salinity                                  = 1                   # Include salinity, (0=no, 1=yes)
InitialSalinity                           = 25.                 # Uniform initial salinity concentration (ppt)
Sal0abovezlev                             = -999.               # Vertical level (m) above which salinity is set 0
DeltaSalinity                             = -999.               # for testcases
Salimax                                   = -999.               # Limit the salinity
Salimin                                   = 0.                  # Limit the salinity
Backgroundsalinity                        = 30.                 # Background salinity for eqn. of state (psu) if salinity not computed
Backgroundwatertemperature                = 6.                  # Background water temperature for eqn. of state (deg C) if temperature not computed
Temperature                               = 0                   # Include temperature (0: no, 1: only transport, 3: excess model of D3D, 5: composite (ocean) model)
InitialTemperature                        = 6.                  # Uniform initial water temperature (degC)
Secchidepth                               = 2.                  # Water clarity parameter (m)
Stanton                                   = -1.                 # Coefficient for convective heat flux, if negative, Ccon = abs(Stanton)*Cdwind
Dalton                                    = -1.                 # Coefficient for evaporative heat flux, if negative, Ceva = abs(Dalton)*Cdwind
Tempmax                                   = -999.               # Limit the temperature
Tempmin                                   = 0.                  # Limit the temperature
Surftempsmofac                            = 0.                  # Hor . Smoothing factor for surface water in heatflx comp. (0.0-1.0), 0=no
Soiltempthick                             = 0.1                 # Use soil temperature buffer if > 0, e.g. 0.2 (m)
Heat_eachstep                             = 1                   # 1=heat each timestep, 0=heat each usertimestep
SecondaryFlow                             = 0                   # Secondary flow (0: no, 1: yes)
BetaSpiral                                = 0.                  # Weight factor of the spiral flow intensity on flow dispersion stresses
Equili                                    = 0                   # Equilibrium spiral flow intensity (0: no, 1: yes)

[sediment]
Sedimentmodelnr                           = 0                   # Sediment model nr, (0=no, 1=Krone, 2=SvR2007, 3=E-H, 4=MorphologyModule)
Nr_of_sedfractions                        = 0                   # Nr of sediment fractions, (specify the next parameters for each fraction)
MxgrKrone                                 = 0                   # Highest fraction index treated by Krone
Seddenscoupling                           = 0                   # Sed rho coupling (0=no, 1 =yes

[veg]
Vegetationmodelnr                         = 0                   # Vegetation model nr, (0=no, 1=Baptist DFM)
Clveg                                     = 0.8                 # Stem distance factor, default 0.8 ()
Cdveg                                     = 0.7                 # Stem Cd coefficient , default 0.7 ()
Cbveg                                     = 0.                  # Stem stiffness coefficient , default 0.7 ()
Rhoveg                                    = 0.                  # Stem Rho, if > 0, -> bouyant stick procedure, default 0.0 ()
Stemheightstd                             = 0.                  # Stem height standard deviation fraction, e.g. 0.1  ()
Densvegminbap                             = 0.                  # Minimum vegetation density in Baptist formula  (1/m2)

[wind]
ICdtyp                                    = 2                   # Wind drag coefficient type (1=Const; 2=Smith&Banke (2 pts); 3=S&B (3 pts); 4=Charnock 1955, 5=Hwang 2005, 6=Wuest 2005, 7=Hersbach 2010 (2 pts)
Cdbreakpoints                             = 6.3d-4 7.23d-3      # Wind drag coefficient break points
Windspeedbreakpoints                      = 0. 100.             # Wind speed break points (m/s)
Relativewind                              = 0                   # Wind speed relative to top-layer water speed, 1=yes, 0 = no)
Windpartialdry                            = 0                   # Reduce windstress on water if link partially dry, only for bedlevtyp=3, 0 = no, 1 = yes = default
Rhoair                                    = 1.205               # Air density (kg/m3)
PavBnd                                    = 0.                  # Average air pressure on open boundaries (N/m2) (only applied if > 0)
Pavini                                    = 0.                  # Average air pressure for initial water level correction (N/m2) (only applied if > 0)
Stericcorrection                          = 0                   # Steric correction on waterlevel bnds, for which sal + temp should be prescribed

[grw]
groundwater                               = 0                   # 0=No (horizontal) groundwater flow, 1=With groundwater flow
Infiltrationmodel                         = 0                   # 0=No infiltration, 1=infiltration=interceptionlayer (with grw), 2=infiltration=Infiltrationcapacity, 3=model unsaturated/saturated (with grw) ( )
Hinterceptionlayer                        = 0.                  # Intercept this amount of rain (m)
UnifInfiltrationCapacity                  = 0.                  # Uniform maximum infiltration capacity (m/s)
Conductivity                              = 0.                  # non dimensionless K conductivity   saturated (m/s), Q = K*A*i (m3/s)
h_aquiferuni                              = 20.                 # bgrw = bl - h_aquiferuni (m), if negative, bgrw = bgrwuni
h_unsatini                                = 0.200000002980232   # initial level groundwater is bedlevel - h_unsatini (m), if negative, sgrw = sgrwini

[waves]
Wavemodelnr                               = 0                   # Wave model nr. (0: none, 1: fetch/depth limited hurdlestive, 2: Young-Verhagen, 3: SWAN, 5: uniform
Wavenikuradse                             = 1.d-2               # Wave friction Nikuradse ks coefficient (m), used in Krone-Swart
Rouwav                                    = FR84                # Friction model for wave induced shear stress: FR84 (default) or: MS90, HT91, GM79, DS88, BK67, CJ85, OY88, VR04
Gammax                                    = 1.                  # Maximum wave height/water depth ratio
uorbfac                                   = 0                   # Orbital velocities: 0=D3D style; 1=Guza style
jahissigwav                               = 1                   # 1: sign wave height on his output; 0: hrms wave height on his output. Default=1.
jamapsigwav                               = 0                   # 1: sign wave height on map output; 0: hrms wave height on map output. Default=0 (legacy behaviour).
hminlw                                    = 0.2                 # Cut-off depth for application of wave forces in momentum balance

[time]
RefDate                                   = 20000101            # Reference date (yyyymmdd)
Tzone                                     = 0.                  # Time zone assigned to input time series
DtUser                                    = 600.                # Time interval (s) for external forcing update
DtNodal                                   = 21600.              # Time interval (s) for updating nodal factors in astronomical boundary conditions
DtMax                                     = 60.                 # Maximal computation timestep (s)
Dtfacmax                                  = 1.1                 # Max timestep increase factor ( )
DtInit                                    = 1.                  # Initial computation timestep (s)
Timestepanalysis                          = 0                   # 0=no, 1=see file *.steps
Autotimestepvisc                          = 0                   # 0 = no, 1 = yes (Time limitation based on explicit diffusive term)
Tunit                                     = H                   # Time unit for start/stop times (D, H, M or S)
TStart                                    = 22392.              # Start time w.r.t. RefDate (in TUnit)
TStop                                     = 22416.              # Stop  time w.r.t. RefDate (in TUnit)

[restart]
RestartFile                               =                     # Restart netcdf-file, either *_rst.nc or *_map.nc
RestartDateTime                           = 20190326            # Restart date and time (yyyymmddhhmmss) when restarting from *_map.nc

[external forcing]
ExtForceFile                              = plant_loads_current_local.ext# Old format for external forcings file *.ext, link with tim/cmp-format boundary conditions specification
ExtForceFileNew                           = sea_riv_boundary_local_bc.ext# New format for external forcings file *.ext, link with bc-format boundary conditions specification
Rainfall                                  = 0                   # Include rainfall, (0=no, 1=yes)
QinExt                                    = 0                   # Include user Qin, externally provided, (0=no, 1=yes)
Evaporation                               = 0                   # Include evaporation in water balance, (0=no, 1=yes)
WindExt                                   = 0                   # Include wind, externally provided, (0=no, 1=reserved for EC, 2=yes)

[trachytopes]
TrtRou                                    = N                   # Include alluvial and vegetation roughness (trachytopes) (Y: yes, N: no)
TrtDef                                    =                     # File (*.ttd) including trachytope definitions
TrtL                                      =                     # File (*.arl) including distribution of trachytope definitions
DtTrt                                     = 60.                 # Trachytope roughness update time interval (s)
TrtMxR                                    = 8                   # Maximum recursion level for combined trachytope definitions
TrtCll                                    =                     # Calibration factor file for roughness from trachytopes (see also [calibration] block)
TrtMnH                                    = 0.1                 # Minimum water depth for roughness computations
TrtMth                                    = 1                   # Area averaging method, (1=Nikuradse k based, 2=Chezy C based (parallel and serial))

[calibration]
UseCalibration                            = 0                   # Activate calibration factor friction multiplier (1 = yes, 0 = no)
DefinitionFile                            =                     # File (*.cld) including calibration definitions
AreaFile                                  =                     # File (*.cll) including area distribution of calibration definitions

[output]
OutputDir                                 =                     # Output directory of map-, his-, rst-, dat- and timings-files, default: DFM_OUTPUT_<modelname>. Set to . for current dir.
FlowGeomFile                              =                     # Flow geometry NetCDF *_flowgeom.nc
ObsFile                                   = guayas_locations_obs.xyn current_situation_obs.xyn# Points file *.xyn with observation stations with rows x, y, station name
CrsFile                                   =                     # Polyline file *_crs.pli defining observation cross sections
FouFile                                   =                     # Fourier analysis input file *.fou
FouUpdateStep                             = 1                   # Fourier update step type: 0=every user time step, 1=every computational timestep.
HisFile                                   =                     # HisFile name *_his.nc
MapFile                                   =                     # MapFile name *_map.nc
HisInterval                               = 600. 80611200. 80697600.# History output times, given as "interval" "start period" "end period" (s)
XLSInterval                               = 0.                  # Interval (s) between XLS history
MapInterval                               = 1800. 80611200. 80697600.# Map file output, given as "interval" "start period" "end period" (s)
RstInterval                               = 21600. 80611200. 80697600.# Restart file output times, given as "interval" "start period" "end period" (s)
WaqOutputDir                              =                     # Output directory of WAQ communication files (flowgeom, vol, flo, etc.), default: DFM_DELWAQ_<modelname>. Set to . for current dir.
WaqInterval                               = 3600. 80611200. 80697600.# DELWAQ output times, given as "interval" "start period" "end period" (s)
WaqHorAggr                                =                     # DELWAQ output horizontal aggregation file (*.dwq)
WaqVertAggr                               =                     # DELWAQ output vertical aggregation file (*.vag)
ClassMapInterval                          = 0. 80611200. 80697600.# Class map output times, given as "interval" "start period" "end period" (s)
ClassMapFile                              =                     # ClassMapFile name *_clm.nc
WaterlevelClasses                         =                     # Class map's list of class values for water levels
WaterDepthClasses                         =                     # Class map's list of class values for water depths
VelocityMagnitudeClasses                  =                     # Class map's list of class values for velocity magnitudes
VelocityDirectionClassesInterval          =                     # Class map's step size of class values for velocity direction
StatsInterval                             = -60.                # Screen step output interval in seconds simulation time, if negative in seconds wall clock time
WriteBalancefile                          = 0                   # Write balance file (1: yes, 0: no)
TimingsInterval                           = 0.                  # Timings statistics output interval
TimeSplitInterval                         = 0 s                 # Time splitting interval, after which a new output file is started. value+unit, e.g. '1 M', valid units: Y,M,D,h,m,s.
MapFormat                                 = 1                   # Map file format, 1: netCDF, 2: Tecplot, 3: netCFD and Tecplot, 4: NetCDF-UGRID
NcFormat                                  = 3                   # Format for all NetCDF output files (3: classic, 4: NetCDF4+HDF5)
NcWriteLatLon                             = 0                   # Write extra lat-lon coordinates for all projected coordinate variables in each NetCDF file (for CF-compliancy).
Wrihis_balance                            = 0                   # Write mass balance totals to his file (1: yes, 0: no)
Wrihis_sourcesink                         = 1                   # Write sources-sinks statistics to his file (1: yes, 0: no)
Wrihis_structure_gen                      = 1                   # Write general structure parameters to his file (1: yes, 0: no)
Wrihis_structure_dam                      = 1                   # Write dam parameters to his file (1: yes, 0: no)
Wrihis_structure_pump                     = 1                   # Write pump parameters to his file (1: yes, 0: no)
Wrihis_structure_gate                     = 1                   # Write gate parameters to his file (1: yes, 0: no)
Wrihis_structure_weir                     = 1                   # Write weir parameters to his file (1: yes, 0: no)
Wrihis_structure_orifice                  = 1                   # Write orifice parameters to his file (1: yes, 0: no)
Wrihis_structure_bridge                   = 1                   # Write bridge parameters to his file (1: yes, 0: no)
Wrihis_structure_culvert                  = 1                   # Write culvert parameters to his file (1: yes, 0: no)
Wrihis_structure_damBreak                 = 1                   # Write dam break parameters to his file (1: yes, 0: no)
Wrihis_structure_uniWeir                  = 1                   # Write universal weir parameters to his file (1: yes, 0: no)
Wrihis_structure_compound                 = 1                   # Write compound structure parameters to his file (1: yes, 0: no)
Wrihis_turbulence                         = 1                   # Write k, eps and vicww to his file (1: yes, 0: no)
Wrihis_wind                               = 1                   # Write wind velocities to his file (1: yes, 0: no)
Wrihis_rain                               = 1                   # Write precipitation to his file (1: yes, 0: no)
Wrihis_temperature                        = 0                   # Write temperature to his file (1: yes, 0: no)
Wrihis_waves                              = 0                   # Write wave data to his file (1: yes, 0: no)
Wrihis_heat_fluxes                        = 0                   # Write heat fluxes to his file (1: yes, 0: no)
Wrihis_salinity                           = 1                   # Write salinity to his file (1: yes, 0: no)
Wrihis_density                            = 1                   # Write density to his file (1: yes, 0: no)
Wrihis_waterlevel_s1                      = 1                   # Write water level to his file (1: yes, 0: no)
Wrihis_bedlevel                           = 1                   # Write bed level to his file (1: yes, 0: no)
Wrihis_waterdepth                         = 0                   # Write waterd epth to his file (1: yes, 0: no)
Wrihis_velocity_vector                    = 1                   # Write velocity vectors to his file (1: yes, 0: no)
Wrihis_upward_velocity_component          = 0                   # Write upward velocity to his file (1: yes, 0: no)
Wrihis_sediment                           = 1                   # Write sediment transport to his file (1: yes, 0: no)
Wrihis_constituents                       = 1                   # Write tracers to his file (1: yes, 0: no)
Wrihis_zcor                               = 1                   # Write vertical coordinates to his file (1: yes, 0: no)
Wrimap_waterlevel_s0                      = 0                   # Write water levels for previous time step to map file (1: yes, 0: no)
Wrimap_waterlevel_s1                      = 1                   # Write water levels to map file (1: yes, 0: no)
Wrimap_volume1                            = 0                   # Write volumes to map file (1: yes, 0: no)
Wrimap_waterdepth_hu                      = 0                   # Write water depths on u-points to map file (1: yes, 0: no)
Wrimap_ancillary_variables                = 0                   # Write ancillary_variables attributes to map file (1: yes, 0: no)
Wrimap_flowarea_au                        = 0                   # Write flow areas au to map file (1: yes, 0: no)
Wrimap_velocity_component_u0              = 0                   # Write velocity component for previous time step to map file (1: yes, 0: no)
Wrimap_velocity_component_u1              = 1                   # Write velocity component to map file (1: yes, 0: no)
Wrimap_velocity_vector                    = 1                   # Write cell-center velocity vectors to map file (1: yes, 0: no)
Wrimap_velocity_magnitude                 = 1                   # Write cell-center velocity vector magnitude to map file (1: yes, 0: no)
Wrimap_velocity_vectorq                   = 0                   # Write cell-center velocity vectors (discharge-based) to map file (1: yes, 0: no)
Wrimap_upward_velocity_component          = 0                   # Write upward velocity component on cell interfaces (1: yes, 0: no)
Wrimap_density_rho                        = 0                   # Write flow density to map file (1: yes, 0: no)
Wrimap_horizontal_viscosity_viu           = 1                   # Write horizontal viscosity to map file (1: yes, 0: no)
Wrimap_horizontal_diffusivity_diu         = 1                   # Write horizontal diffusivity to map file (1: yes, 0: no)
Wrimap_flow_flux_q1                       = 1                   # Write flow flux to map file (1: yes, 0: no)
Wrimap_flow_flux_q1_main                  = 0                   # Write flow flux in main channel to map file (1: yes, 0: no)
Wrimap_numlimdt                           = 1                   # Write the number times a cell was Courant limiting to map file (1: yes, 0: no)
Wrimap_taucurrent                         = 1                   # Write the shear stress to map file (1: yes, 0: no)
Wrimap_chezy                              = 1                   # Write the chezy roughness to map file (1: yes, 0: no)
Wrimap_salinity                           = 1                   # Write salinity to map file (1: yes, 0: no)
Wrimap_turbulence                         = 1                   # Write vicww, k and eps to map file (1: yes, 0: no)
Wrimap_wind                               = 1                   # Write wind velocities to map file (1: yes, 0: no)
Wrimap_windstress                         = 0                   # Write wind stress to map file (1: yes, 0: no)
Writek_CdWind                             = 1                   # Write wind friction coeffs to tek file (1: yes, 0: no)
Wrimap_DTcell                             = 0                   # Write time step per cell based on CFL (1: yes, 0: no)
Writepart_domain                          = 1                   # Write partition domain info. for postprocessing
Richardsononoutput                        = 1                   # Write Richardson numbers (1: yes, 0: no)
Wrishp_crs                                = 0                   # Write grid-snapped cross sections to shapefile (1: yes, 0: no)
Wrishp_obs                                = 0                   # Write grid-snapped observation stations to shapefile (1: yes, 0: no)
Wrishp_weir                               = 0                   # Write grid-snapped weirs to shapefile (1: yes, 0: no)
Wrishp_thd                                = 0                   # Write grid-snapped thin dams to shapefile (1: yes, 0: no)
Wrishp_gate                               = 0                   # Write grid-snapped gates to shapefile (1: yes, 0: no)
Wrishp_emb                                = 0                   # Write grid-snapped 1d2d embankments to shapefile (1: yes, 0: no)
Wrishp_fxw                                = 0                   # Write grid-snapped fixed weirs to shapefile (1: yes, 0: no)
Wrishp_src                                = 0                   # Write grid-snapped source-sinks to shapefile (1: yes, 0: no)
Wrishp_pump                               = 0                   # Write grid-snapped pumps to shapefile (1: yes, 0: no)
Wrishp_dryarea                            = 0                   # Write a shape file for dry areas
wrishp_genstruc                           = 0                   # Write a shape file for general structures
WriteDFMinterpretedvalues                 = 0                   # Write DFMinterpretedvalues (1: yes, 0: no)
MapOutputTimeVector                       =                     # File (*.mpt) containing fixed map output times (s) w.r.t. RefDate
FullGridOutput                            = 0                   # Full grid output mode (0: compact, 1: full time-varying grid data)
EulerVelocities                           = 0                   # Euler velocities output (0: GLM, 1: Euler velocities)
Wrirst_bnd                                = 1                   # Write waterlevel, bedlevel and coordinates of boundaries to restart files

[particles]
ParticlesFile                             = 
AddTracer                                 = 0                   # add tracer (1) or not (other)
StartTime                                 = 0.                  # starttime (if >0)
TimeStep                                  = 0.                  # time step (>0) or every computational time step
3Dtype                                    = 0                   # 3D type: depth averaged (0) or free surface (1)

[processes]
SubstanceFile                             =                     # substance file
AdditionalHistoryOutputFile               =                     # extra history output file
StatisticsFile                            =                     # statistics file
ThetaVertical                             = 0.                  # theta vertical for waq
DtProcesses                               = 0.                  # waq processes time step
DtMassBalance                             = 0.                  # waq mass balance output time step
ProcessFluxIntegration                    = 1                   # Process fluxes integration option (1: WAQ, 2: D-Flow FM)
VolumeDryThreshold                        = 1.d-3
DepthDryThreshold                         = 1.d-3
** INFO   : **
** INFO   : Modelinit finished   at: 11:44:13, 01-11-2019
** INFO   : 
** INFO   : 
** INFO   : nr of netnodes         ( )  :                    27067
** INFO   : nr of netlinks         ( )  :                    51956
** INFO   : nr of flownodes        ( )  :                    24859
** INFO   : nr of openbnd cells    ( )  :                       68
** INFO   : nr of 1D-flownodes     ( )  :                        0
** INFO   : nr of flowlinks        ( )  :                    45940
** INFO   : nr of internal links   ( )  :                    45872
** INFO   : nr of 1D links         ( )  :                        0
** INFO   : nr of closed walls     ( )  :                     5865
** INFO   : 
** INFO   : 
** INFO   : my model area          (m2) :         0.1686256330E+11
** INFO   : my model volume        (m3) :         0.3242585082E+13
** INFO   : 
** INFO   : 
** INFO   : Writing initial output to file(s)...
** DEBUG  : Opened NetCDF file 'DFM_OUTPUT_current_situation\current_situation_his.nc' as #131072.
** DEBUG  : Opened NetCDF file 'DFM_OUTPUT_current_situation\current_situation_map.nc' as #196608.
** WARNING: Missing coordinate reference system. Now using default: wgs84 (EPSG:4326).
** DEBUG  : Opened NetCDF file 'DFM_OUTPUT_current_situation\current_situation_20020722_000000_rst.nc' as #262144.
** DEBUG  : Closed NetCDF file 'DFM_OUTPUT_current_situation\current_situation_20020722_000000_rst.nc.
** INFO   : In waq_wri_model_files().
** INFO   : Opened file : DFM_DELWAQ_current_situation\current_situation.hyd
** INFO   : Closed file : DFM_DELWAQ_current_situation\current_situation.hyd
** DEBUG  : Opened NetCDF file 'DFM_DELWAQ_current_situation\current_situation_waqgeom.nc' as #262144.
** WARNING: Missing coordinate reference system. Now using default: wgs84 (EPSG:4326).
** DEBUG  : Closed NetCDF file 'DFM_DELWAQ_current_situation\current_situation_waqgeom.nc.
** INFO   : Opened file : DFM_DELWAQ_current_situation\current_situation.bnd
** INFO   : Closed file : DFM_DELWAQ_current_situation\current_situation.bnd
** INFO   : Opened file : DFM_DELWAQ_current_situation\current_situation.poi
** INFO   : Opened file : DFM_DELWAQ_current_situation\current_situation.len
** INFO   : Opened file : DFM_DELWAQ_current_situation\current_situation.srf
** INFO   : Opened file : DFM_DELWAQ_current_situation\current_situation.srfold
** INFO   : Opened file : DFM_DELWAQ_current_situation\current_situation.atr
** INFO   :  In waq_wri_couple_files: #           0 , time:    80611200.0000000
** INFO   : Opened file : DFM_DELWAQ_current_situation\current_situation.vol
** INFO   : Opened file : DFM_DELWAQ_current_situation\current_situation.vel
** INFO   : Opened file : DFM_DELWAQ_current_situation\current_situation.sal
** INFO   : Opened file : DFM_DELWAQ_current_situation\current_situation.tau
** INFO   : Done writing initial output to file(s).
** INFO   :    Sim. time done   Sim. time left   Real time used   Real time left Steps left Complete% Interval-averaged time step
** INFO   :           0d  0:20:00          0d 23:40:00          0d  0:00:03          0d  0:04:03        142     1.4%     0.00000
** INFO   :  In waq_wri_couple_files: #           1 , time:    80614800.0000000
** INFO   : Opened file : DFM_DELWAQ_current_situation\current_situation.are
** INFO   : Opened file : DFM_DELWAQ_current_situation\current_situation.flo
** INFO   :  In waq_wri_couple_files: #           2 , time:    80618400.0000000
** INFO   :  In waq_wri_couple_files: #           3 , time:    80622000.0000000
** INFO   :  In waq_wri_couple_files: #           4 , time:    80625600.0000000
** INFO   :  In waq_wri_couple_files: #           5 , time:    80629200.0000000
** DEBUG  : Opened NetCDF file 'DFM_OUTPUT_current_situation\current_situation_20020722_060000_rst.nc' as #262144.
** DEBUG  : Closed NetCDF file 'DFM_OUTPUT_current_situation\current_situation_20020722_060000_rst.nc.
** INFO   :  In waq_wri_couple_files: #           6 , time:    80632800.0000000
** INFO   :           0d  6:10:00          0d 17:50:00          0d  0:01:04          0d  0:03:04        107    25.7%    20.77151
** INFO   :  In waq_wri_couple_files: #           7 , time:    80636400.0000000
** INFO   :  In waq_wri_couple_files: #           8 , time:    80640000.0000000
** INFO   :  In waq_wri_couple_files: #           9 , time:    80643600.0000000
** INFO   :  In waq_wri_couple_files: #          10 , time:    80647200.0000000
** INFO   :  In waq_wri_couple_files: #          11 , time:    80650800.0000000
** INFO   :           0d 11:30:00          0d 12:30:00          0d  0:02:04          0d  0:02:15         75    47.9%    17.91045
** DEBUG  : Opened NetCDF file 'DFM_OUTPUT_current_situation\current_situation_20020722_120000_rst.nc' as #262144.
** DEBUG  : Closed NetCDF file 'DFM_OUTPUT_current_situation\current_situation_20020722_120000_rst.nc.
** INFO   :  In waq_wri_couple_files: #          12 , time:    80654400.0000000
** INFO   :  In waq_wri_couple_files: #          13 , time:    80658000.0000000
** INFO   :  In waq_wri_couple_files: #          14 , time:    80661600.0000000
** INFO   :  In waq_wri_couple_files: #          15 , time:    80665200.0000000
** INFO   :  In waq_wri_couple_files: #          16 , time:    80668800.0000000
** INFO   :           0d 16:40:00          0d  7:20:00          0d  0:03:03          0d  0:01:21         44    69.4%    17.74809
** INFO   :  In waq_wri_couple_files: #          17 , time:    80672400.0000000
** DEBUG  : Opened NetCDF file 'DFM_OUTPUT_current_situation\current_situation_20020722_180000_rst.nc' as #262144.
** DEBUG  : Closed NetCDF file 'DFM_OUTPUT_current_situation\current_situation_20020722_180000_rst.nc.
** INFO   :  In waq_wri_couple_files: #          18 , time:    80676000.0000000
** INFO   :  In waq_wri_couple_files: #          19 , time:    80679600.0000000
** INFO   :  In waq_wri_couple_files: #          20 , time:    80683200.0000000
** INFO   :  In waq_wri_couple_files: #          21 , time:    80686800.0000000
** INFO   :           0d 21:50:00          0d  2:10:00          0d  0:04:02          0d  0:00:24         13    91.0%    16.47476
** INFO   :  In waq_wri_couple_files: #          22 , time:    80690400.0000000
** INFO   :  In waq_wri_couple_files: #          23 , time:    80694000.0000000
** DEBUG  : Opened NetCDF file 'DFM_OUTPUT_current_situation\current_situation_20020723_000000_rst.nc' as #262144.
** DEBUG  : Closed NetCDF file 'DFM_OUTPUT_current_situation\current_situation_20020723_000000_rst.nc.
** INFO   :  In waq_wri_couple_files: #          24 , time:    80697600.0000000
** INFO   : 
** INFO   : 
** INFO   : 
** INFO   : 
** INFO   : 
** INFO   : 
** INFO   : nr of timesteps        ( )  :          5004.0000000000
** INFO   : average timestep       (s)  :            17.2661870504
** INFO   : 
** INFO   : 
** INFO   : simulation period      (d)  :             1.0000000000
** INFO   : total computation time (d)  :             0.0032498380
** INFO   : time modelinit         (d)  :             0.0000150926
** INFO   : time steps (+ plots)   (d)  :             0.0032347454
** INFO   : 
** INFO   : simulation period      (h)  :            24.0000000000
** INFO   : total computation time (h)  :             0.0779961111
** INFO   : time modelinit         (h)  :             0.0003622222
** INFO   : time steps (+ plots)   (h)  :             0.0776338889
** INFO   : 
** INFO   : simulation period      (s)  :         86400.0000000000
** INFO   : total computation time (s)  :           280.7860000000
** INFO   : time modelinit         (s)  :             1.3040000000
** INFO   : time steps (+ plots)   (s)  :           279.4820000000
** INFO   : 
** INFO   : 
** INFO   : time iniexternalforc.  (s)  :             0.5160000000
** INFO   : 
** INFO   : time inistep           (s)  :            47.1040000000
** INFO   : time setumod           (s)  :            30.2950000002
** INFO   : time furu              (s)  :             1.3910000001
** INFO   : time solve             (s)  :           201.0100000000
** INFO   : time setexternalforc.  (s)  :             0.0040000000
** INFO   : time setexternalfbnd.  (s)  :             0.8150000001
** INFO   : time steps             (s)  :           272.3429999999
** INFO   : fraction solve/steps   ( )  :             0.7380766166
** INFO   : total/(dnt*ndx)        (s)  :             0.0000022467
** INFO   : av nr of cont. it s1it ( )  :             0.0000000000
** INFO   : time transport [s]         :            15.6000000000
** INFO   : time processes [s]         :             0.0000000000
** INFO   : time debug     [s]         :             1.2609999998
** INFO   : time filter coeff.      [s]:             0.0000000000
** INFO   : time filter solve       [s]:             0.0000000000
** INFO   : time filter cnstr. mat. [s]:             0.0000000000
** INFO   : time filter copy back   [s]:             0.0000000000
** INFO   : time filter other       [s]:             0.0000000000
** INFO   : time filter             [s]:             0.0000000000
** INFO   : 
** INFO   : 
** INFO   : 
** INFO   : Computation started  at: 11:44:13, 01-11-2019
** INFO   : Computation finished at: 11:48:53, 01-11-2019
** INFO   : 
** INFO   : simulation period      (h)  :            24.0000000000
** INFO   : total time in timeloop (h)  :             0.0776338889
** INFO   : MPI    : no.
** INFO   : OpenMP : yes.         #threads max : 12
** INFO   : 
** INFO   : 
** INFO   : 
** INFO   : Opened file : DFM_OUTPUT_current_situation\current_situation_numlimdt.xyz
** INFO   : Closed file : DFM_OUTPUT_current_situation\current_situation_numlimdt.xyz
** INFO   : 
** INFO   : Load MDU-file                    (*.mdu)
** INFO   : Opened file : current_situation.mdu
** INFO   : Closed file : current_situation.mdu
** DEBUG  :           88  0.1000020      NOD(KMAX)
** DEBUG  :           94  0.7000140      XK (KMAX), YK (KMAX), ZK (KMAX), KC (KMAX), NMK (KMAX), RNOD(KMAX)
** DEBUG  :           94  2.0160000E-03  xsp(maxspl, maxsplen)
** DEBUG  :           94  2.0160000E-03  ysp(maxspl, maxsplen)
** DEBUG  :           94  2.0160000E-03  xsp2(maxspl, maxsplen)
** DEBUG  :           94  2.0160000E-03  ysp2(maxspl, maxsplen)
** WARNING: readMDUFile: [geometry] uniformtyp1dstreetinlets=-2 was in file, but not used. Check possible typo.
** WARNING: readMDUFile: [geometry] uniformtyp1droofgutterpipes=-2 was in file, but not used. Check possible typo.
** WARNING: readMDUFile: [numerics] jaorgsethu=1 was in file, but not used. Check possible typo.
** WARNING: readMDUFile: [physics] effectspiral=0 was in file, but not used. Check possible typo.
** WARNING: readMDUFile: [output] wrishp_enc=0 was in file, but not used. Check possible typo.
** WARNING: readMDUFile: [output] waterlevelclasses=0.0 was in file, but not used. Check possible typo.
** WARNING: readMDUFile: [output] waterdepthclasses=0.0 was in file, but not used. Check possible typo.
** DEBUG  : Detected old format for 1D ("CF-1.6 UGRID-1.0/Deltares-0.8") in 'stage4_spot_ortho_DFM_reint_net.nc'.
** INFO   : Network UGRID-File: No 1D-Mesh Present, Skipped 1D
** INFO   : Opened file : guayas.ldb
** INFO   : Closed file : guayas.ldb
** INFO   : Opened file : guayas_locations_obs.xyn
** INFO   : Closed file : guayas_locations_obs.xyn
** INFO   : Opened file : bridgepiers_3_thd.pli
** INFO   : Closed file : bridgepiers_3_thd.pli
** INFO   : Opened file : current_situation_thd.pli
** INFO   : Closed file : current_situation_thd.pli
** INFO   : Start of the computation time loop
** INFO   : Closed file : DFM_DELWAQ_current_situation\current_situation.vol
** INFO   : Closed file : DFM_DELWAQ_current_situation\current_situation.vel
** INFO   : Closed file : DFM_DELWAQ_current_situation\current_situation.sal
** INFO   : Closed file : DFM_DELWAQ_current_situation\current_situation.are
** INFO   : Closed file : DFM_DELWAQ_current_situation\current_situation.flo
** INFO   : Closed file : DFM_DELWAQ_current_situation\current_situation.tau
** INFO   : Initializing flow model geometry...
** DEBUG  : Opened 'stage4_spot_ortho_DFM_reint_net.nc' as #    262144.
** WARNING: Could not read net cells from NetCDF file 'stage4_spot_ortho_DFM_reint_net.nc' (is not critical). Details follow:
** DEBUG  : NetCDF error: NetCDF: Invalid dimension ID or name (nNetElem)
** DEBUG  :           94  5.1956002E-02  lnn(numl)
** DEBUG  :           95  0.1039120      lne(2,numl)
** DEBUG  :           95  2.4869001E-02  xz(numc)
** DEBUG  :           95  2.4869001E-02  yz(numc)
** DEBUG  :           95  2.4869001E-02  xzw(numc)
** DEBUG  :           96  2.4869001E-02  yzw(numc)
** DEBUG  :           96  2.4869001E-02  ba(numc)
** INFO   : removing dry cells...
** INFO   : Opened file : current_situation_dry.xyz
** INFO   : merged 0 samples in .00 seconds.
** INFO   : Closed file : current_situation_dry.xyz
** INFO   : done in      0.02000 sec.
** INFO   : Finding crossed flowlinks...
** INFO   : done
** INFO   : thin dams with kdtree2, elapsed time:     0.11300    s.
** INFO   : Opened file : plant_loads_current_local.ext
** DEBUG  :           96  5.1956002E-02  xe (nx)
[...]
Wrihis_structure_pump                     = 1                   # Write pump parameters to his file (1: yes, 0: no)
Wrihis_structure_gate                     = 1                   # Write gate parameters to his file (1: yes, 0: no)
Wrihis_structure_weir                     = 1                   # Write weir parameters to his file (1: yes, 0: no)
Wrihis_structure_orifice                  = 1                   # Write orifice parameters to his file (1: yes, 0: no)
Wrihis_structure_bridge                   = 1                   # Write bridge parameters to his file (1: yes, 0: no)
Wrihis_structure_culvert                  = 1                   # Write culvert parameters to his file (1: yes, 0: no)
Wrihis_structure_damBreak                 = 1                   # Write dam break parameters to his file (1: yes, 0: no)
Wrihis_structure_uniWeir                  = 1                   # Write universal weir parameters to his file (1: yes, 0: no)
Wrihis_structure_compound                 = 1                   # Write compound structure parameters to his file (1: yes, 0: no)
Wrihis_turbulence                         = 1                   # Write k, eps and vicww to his file (1: yes, 0: no)
Wrihis_wind                               = 1                   # Write wind velocities to his file (1: yes, 0: no)
Wrihis_rain                               = 1                   # Write precipitation to his file (1: yes, 0: no)
Wrihis_temperature                        = 0                   # Write temperature to his file (1: yes, 0: no)
Wrihis_waves                              = 0                   # Write wave data to his file (1: yes, 0: no)
Wrihis_heat_fluxes                        = 0                   # Write heat fluxes to his file (1: yes, 0: no)
Wrihis_salinity                           = 1                   # Write salinity to his file (1: yes, 0: no)
Wrihis_density                            = 1                   # Write density to his file (1: yes, 0: no)
Wrihis_waterlevel_s1                      = 1                   # Write water level to his file (1: yes, 0: no)
Wrihis_bedlevel                           = 1                   # Write bed level to his file (1: yes, 0: no)
Wrihis_waterdepth                         = 0                   # Write waterd epth to his file (1: yes, 0: no)
Wrihis_velocity_vector                    = 1                   # Write velocity vectors to his file (1: yes, 0: no)
Wrihis_upward_velocity_component          = 0                   # Write upward velocity to his file (1: yes, 0: no)
Wrihis_sediment                           = 1                   # Write sediment transport to his file (1: yes, 0: no)
Wrihis_constituents                       = 1                   # Write tracers to his file (1: yes, 0: no)
Wrihis_zcor                               = 1                   # Write vertical coordinates to his file (1: yes, 0: no)
Wrimap_waterlevel_s0                      = 0                   # Write water levels for previous time step to map file (1: yes, 0: no)
Wrimap_waterlevel_s1                      = 1                   # Write water levels to map file (1: yes, 0: no)
Wrimap_volume1                            = 0                   # Write volumes to map file (1: yes, 0: no)
Wrimap_waterdepth_hu                      = 0                   # Write water depths on u-points to map file (1: yes, 0: no)
Wrimap_ancillary_variables                = 0                   # Write ancillary_variables attributes to map file (1: yes, 0: no)
Wrimap_flowarea_au                        = 0                   # Write flow areas au to map file (1: yes, 0: no)
Wrimap_velocity_component_u0              = 0                   # Write velocity component for previous time step to map file (1: yes, 0: no)
Wrimap_velocity_component_u1              = 1                   # Write velocity component to map file (1: yes, 0: no)
Wrimap_velocity_vector                    = 1                   # Write cell-center velocity vectors to map file (1: yes, 0: no)
Wrimap_velocity_magnitude                 = 1                   # Write cell-center velocity vector magnitude to map file (1: yes, 0: no)
Wrimap_velocity_vectorq                   = 0                   # Write cell-center velocity vectors (discharge-based) to map file (1: yes, 0: no)
Wrimap_upward_velocity_component          = 0                   # Write upward velocity component on cell interfaces (1: yes, 0: no)
Wrimap_density_rho                        = 0                   # Write flow density to map file (1: yes, 0: no)
Wrimap_horizontal_viscosity_viu           = 1                   # Write horizontal viscosity to map file (1: yes, 0: no)
Wrimap_horizontal_diffusivity_diu         = 1                   # Write horizontal diffusivity to map file (1: yes, 0: no)
Wrimap_flow_flux_q1                       = 1                   # Write flow flux to map file (1: yes, 0: no)
Wrimap_flow_flux_q1_main                  = 0                   # Write flow flux in main channel to map file (1: yes, 0: no)
Wrimap_numlimdt                           = 1                   # Write the number times a cell was Courant limiting to map file (1: yes, 0: no)
Wrimap_taucurrent                         = 1                   # Write the shear stress to map file (1: yes, 0: no)
Wrimap_chezy                              = 1                   # Write the chezy roughness to map file (1: yes, 0: no)
Wrimap_salinity                           = 1                   # Write salinity to map file (1: yes, 0: no)
Wrimap_turbulence                         = 1                   # Write vicww, k and eps to map file (1: yes, 0: no)
Wrimap_wind                               = 1                   # Write wind velocities to map file (1: yes, 0: no)
Wrimap_windstress                         = 0                   # Write wind stress to map file (1: yes, 0: no)
Writek_CdWind                             = 1                   # Write wind friction coeffs to tek file (1: yes, 0: no)
Wrimap_DTcell                             = 0                   # Write time step per cell based on CFL (1: yes, 0: no)
Writepart_domain                          = 1                   # Write partition domain info. for postprocessing
Richardsononoutput                        = 1                   # Write Richardson numbers (1: yes, 0: no)
Wrishp_crs                                = 0                   # Write grid-snapped cross sections to shapefile (1: yes, 0: no)
Wrishp_obs                                = 0                   # Write grid-snapped observation stations to shapefile (1: yes, 0: no)
Wrishp_weir                               = 0                   # Write grid-snapped weirs to shapefile (1: yes, 0: no)
Wrishp_thd                                = 0                   # Write grid-snapped thin dams to shapefile (1: yes, 0: no)
Wrishp_gate                               = 0                   # Write grid-snapped gates to shapefile (1: yes, 0: no)
Wrishp_emb                                = 0                   # Write grid-snapped 1d2d embankments to shapefile (1: yes, 0: no)
Wrishp_fxw                                = 0                   # Write grid-snapped fixed weirs to shapefile (1: yes, 0: no)
Wrishp_src                                = 0                   # Write grid-snapped source-sinks to shapefile (1: yes, 0: no)
Wrishp_pump                               = 0                   # Write grid-snapped pumps to shapefile (1: yes, 0: no)
Wrishp_dryarea                            = 0                   # Write a shape file for dry areas
wrishp_genstruc                           = 0                   # Write a shape file for general structures
WriteDFMinterpretedvalues                 = 0                   # Write DFMinterpretedvalues (1: yes, 0: no)
MapOutputTimeVector                       =                     # File (*.mpt) containing fixed map output times (s) w.r.t. RefDate
FullGridOutput                            = 0                   # Full grid output mode (0: compact, 1: full time-varying grid data)
EulerVelocities                           = 0                   # Euler velocities output (0: GLM, 1: Euler velocities)
Wrirst_bnd                                = 1                   # Write waterlevel, bedlevel and coordinates of boundaries to restart files

[particles]
ParticlesFile                             = 
AddTracer                                 = 0                   # add tracer (1) or not (other)
StartTime                                 = 0.                  # starttime (if >0)
TimeStep                                  = 0.                  # time step (>0) or every computational time step
3Dtype                                    = 0                   # 3D type: depth averaged (0) or free surface (1)

[processes]
SubstanceFile                             =                     # substance file
AdditionalHistoryOutputFile               =                     # extra history output file
StatisticsFile                            =                     # statistics file
ThetaVertical                             = 0.                  # theta vertical for waq
DtProcesses                               = 0.                  # waq processes time step
DtMassBalance                             = 0.                  # waq mass balance output time step
ProcessFluxIntegration                    = 1                   # Process fluxes integration option (1: WAQ, 2: D-Flow FM)
VolumeDryThreshold                        = 1.d-3
DepthDryThreshold                         = 1.d-3
** INFO   : **
** INFO   : Modelinit finished   at: 18:30:17, 01-11-2019
** INFO   : 
** INFO   : 
** INFO   : nr of netnodes         ( )  :                    27067
** INFO   : nr of netlinks         ( )  :                    51956
** INFO   : nr of flownodes        ( )  :                    24859
** INFO   : nr of openbnd cells    ( )  :                       68
** INFO   : nr of 1D-flownodes     ( )  :                        0
** INFO   : nr of flowlinks        ( )  :                    45940
** INFO   : nr of internal links   ( )  :                    45872
** INFO   : nr of 1D links         ( )  :                        0
** INFO   : nr of closed walls     ( )  :                     5865
** INFO   : 
** INFO   : 
** INFO   : my model area          (m2) :         0.1686256330E+11
** INFO   : my model volume        (m3) :         0.3242585082E+13
** INFO   : 
** INFO   : 
** INFO   : Writing initial output to file(s)...
** DEBUG  : Closed NetCDF file 'stage4_spot_ortho_DFM_reint_net.nc.
** DEBUG  : Opened NetCDF file 'DFM_OUTPUT_current_situation\current_situation_his.nc' as #131072.
** DEBUG  : Closed NetCDF file 'DFM_OUTPUT_current_situation\current_situation_his.nc.
** DEBUG  : Opened NetCDF file 'DFM_OUTPUT_current_situation\current_situation_map.nc' as #196608.
** WARNING: Missing coordinate reference system. Now using default: wgs84 (EPSG:4326).
** DEBUG  : Opened NetCDF file 'DFM_OUTPUT_current_situation\current_situation_20020722_000000_rst.nc' as #327680.
** DEBUG  : Closed NetCDF file 'DFM_OUTPUT_current_situation\current_situation_20020722_000000_rst.nc.
** INFO   : In waq_wri_model_files().
** INFO   : Opened file : DFM_DELWAQ_current_situation\current_situation.hyd
** INFO   : Closed file : DFM_DELWAQ_current_situation\current_situation.hyd
** DEBUG  : Opened NetCDF file 'DFM_DELWAQ_current_situation\current_situation_waqgeom.nc' as #327680.
** WARNING: Missing coordinate reference system. Now using default: wgs84 (EPSG:4326).
** DEBUG  : Closed NetCDF file 'DFM_DELWAQ_current_situation\current_situation_waqgeom.nc.
** INFO   : Opened file : DFM_DELWAQ_current_situation\current_situation.bnd
** INFO   : Closed file : DFM_DELWAQ_current_situation\current_situation.bnd
** INFO   : Opened file : DFM_DELWAQ_current_situation\current_situation.poi
** INFO   : Opened file : DFM_DELWAQ_current_situation\current_situation.len
** INFO   : Opened file : DFM_DELWAQ_current_situation\current_situation.srf
** INFO   : Opened file : DFM_DELWAQ_current_situation\current_situation.srfold
** INFO   : Opened file : DFM_DELWAQ_current_situation\current_situation.atr
** INFO   :  In waq_wri_couple_files: #           0 , time:    80611200.0000000
** INFO   : Opened file : DFM_DELWAQ_current_situation\current_situation.vol
** INFO   : Opened file : DFM_DELWAQ_current_situation\current_situation.vel
** INFO   : Opened file : DFM_DELWAQ_current_situation\current_situation.sal
** INFO   : Opened file : DFM_DELWAQ_current_situation\current_situation.tau
** INFO   : Done writing initial output to file(s).
** INFO   :           0d  0:20:00          0d 23:40:00          0d  0:00:03          0d  0:03:30        142     1.4%     0.00000
** INFO   : User interrupt
** INFO   : 
** INFO   : 
** INFO   : 
** INFO   : Simulation did not reach stop time
** INFO   : 
** INFO   : 
** INFO   : 
** INFO   : nr of timesteps        ( )  :           124.0000000000
** INFO   : average timestep       (s)  :           696.7741935484
** INFO   : 
** INFO   : 
** INFO   : simulation period      (d)  :             0.0314429012
** INFO   : total computation time (d)  :             0.0000959259
** INFO   : time modelinit         (d)  :             0.0000166667
** INFO   : time steps (+ plots)   (d)  :             0.0000792593
** INFO   : 
** INFO   : simulation period      (h)  :             0.7546296296
** INFO   : total computation time (h)  :             0.0023022222
** INFO   : time modelinit         (h)  :             0.0004000000
** INFO   : time steps (+ plots)   (h)  :             0.0019022222
** INFO   : 
** INFO   : simulation period      (s)  :          2716.6666666120
** INFO   : total computation time (s)  :             8.2880000000
** INFO   : time modelinit         (s)  :             1.4400000000
** INFO   : time steps (+ plots)   (s)  :             6.8480000000
** INFO   : 
** INFO   : 
** INFO   : time iniexternalforc.  (s)  :             0.5900000000
** INFO   : 
** INFO   : time inistep           (s)  :             1.0319999999
** INFO   : time setumod           (s)  :            30.9620000003
** INFO   : time furu              (s)  :             0.0230000000
** INFO   : time solve             (s)  :             4.8350000000
** INFO   : time setexternalforc.  (s)  :             0.0010000000
** INFO   : time setexternalfbnd.  (s)  :             0.0360000001
** INFO   : time steps             (s)  :             6.3880000000
** INFO   : fraction solve/steps   ( )  :             0.7568879148
** INFO   : total/(dnt*ndx)        (s)  :             0.0000022216
** INFO   : av nr of cont. it s1it ( )  :             0.0000000000
** INFO   : time transport [s]         :             0.3460000000
** INFO   : time processes [s]         :             0.0000000000
** INFO   : time debug     [s]         :             0.0390000001
** INFO   : time filter coeff.      [s]:             0.0000000000
** INFO   : time filter solve       [s]:             0.0000000000
** INFO   : time filter cnstr. mat. [s]:             0.0000000000
** INFO   : time filter copy back   [s]:             0.0000000000
** INFO   : time filter other       [s]:             0.0000000000
** INFO   : time filter             [s]:             0.0000000000
** INFO   : 
** INFO   : 
** INFO   : 
** INFO   : Computation started  at: 18:30:17, 01-11-2019
** INFO   : Computation finished at: 18:30:24, 01-11-2019
** INFO   : 
** INFO   : simulation period      (h)  :             0.7546296296
** INFO   : total time in timeloop (h)  :             0.0019022222
** INFO   : MPI    : no.
** INFO   : OpenMP : yes.         #threads max : 12
** INFO   : 
** INFO   : 
** INFO   : 
** INFO   : Opened file : DFM_OUTPUT_current_situation\current_situation_numlimdt.xyz
** INFO   : Closed file : DFM_OUTPUT_current_situation\current_situation_numlimdt.xyz
** INFO   : 
** INFO   : Values at flow nodes
** INFO   : Start of the computation time loop
** INFO   : Writing initial output to file(s)...
** INFO   : Done writing initial output to file(s).
** INFO   :  In waq_wri_couple_files: #           1 , time:    80614800.0000000
** INFO   : Opened file : DFM_DELWAQ_current_situation\current_situation.are
** INFO   : Opened file : DFM_DELWAQ_current_situation\current_situation.flo
** INFO   :  In waq_wri_couple_files: #           2 , time:    80618400.0000000
** INFO   : User interrupt
** INFO   : 
** INFO   : 
** INFO   : 
** INFO   : Simulation did not reach stop time
** INFO   : 
** INFO   : 
** INFO   : 
** INFO   : nr of timesteps        ( )  :           508.0000000000
** INFO   : average timestep       (s)  :           170.0787401575
** INFO   : 
** INFO   : 
** INFO   : simulation period      (d)  :             0.1218869732
** INFO   : total computation time (d)  :             0.0010262500
** INFO   : time modelinit         (d)  :             0.0000166667
** INFO   : time steps (+ plots)   (d)  :             0.0010095833
** INFO   : 
** INFO   : simulation period      (h)  :             2.9252873563
** INFO   : total computation time (h)  :             0.0246300000
** INFO   : time modelinit         (h)  :             0.0004000000
** INFO   : time steps (+ plots)   (h)  :             0.0242300000
** INFO   : 
** INFO   : simulation period      (s)  :         10531.0344827175
** INFO   : total computation time (s)  :            88.6680000000
** INFO   : time modelinit         (s)  :             1.4400000000
** INFO   : time steps (+ plots)   (s)  :            87.2280000000
** INFO   : 
** INFO   : 
** INFO   : time iniexternalforc.  (s)  :             0.5900000000
** INFO   : 
** INFO   : time inistep           (s)  :             4.2589999999
** INFO   : time setumod           (s)  :            33.0520000005
** INFO   : time furu              (s)  :             0.0999999999
** INFO   : time solve             (s)  :            19.7930000002
** INFO   : time setexternalforc.  (s)  :             0.0020000000
** INFO   : time setexternalfbnd.  (s)  :             0.1100000000
** INFO   : time steps             (s)  :            26.2260000000
** INFO   : fraction solve/steps   ( )  :             0.7547090673
** INFO   : total/(dnt*ndx)        (s)  :             0.0000069073
** INFO   : av nr of cont. it s1it ( )  :             0.0000000000
** INFO   : time transport [s]         :             1.4020000001
** INFO   : time processes [s]         :             0.0000000000
** INFO   : time debug     [s]         :             0.1200000001
** INFO   : time filter coeff.      [s]:             0.0000000000
** INFO   : time filter solve       [s]:             0.0000000000
** INFO   : time filter cnstr. mat. [s]:             0.0000000000
** INFO   : time filter copy back   [s]:             0.0000000000
** INFO   : time filter other       [s]:             0.0000000000
** INFO   : time filter             [s]:             0.0000000000
** INFO   : 
** INFO   : 
** INFO   : 
** INFO   : Computation started  at: 18:30:24, 01-11-2019
** INFO   : Computation finished at: 18:31:45, 01-11-2019
** INFO   : 
** INFO   : simulation period      (h)  :             2.9252873563
** INFO   : total time in timeloop (h)  :             0.0242300000
** INFO   : MPI    : no.
** INFO   : OpenMP : yes.         #threads max : 12
** INFO   : 
** INFO   : 
** INFO   : 
** INFO   : Opened file : DFM_OUTPUT_current_situation\current_situation_numlimdt.xyz
** INFO   : Closed file : DFM_OUTPUT_current_situation\current_situation_numlimdt.xyz
** INFO   : 
** INFO   : Load MDU-file                    (*.mdu)
** INFO   : Opened file : current_situation.mdu
** INFO   : Closed file : current_situation.mdu
** DEBUG  :          169  0.1000020      NOD(KMAX)
** DEBUG  :          174  0.7000140      XK (KMAX), YK (KMAX), ZK (KMAX), KC (KMAX), NMK (KMAX), RNOD(KMAX)
** DEBUG  :          174  2.7520000E-03  xsp(maxspl, maxsplen)
** DEBUG  :          175  2.7520000E-03  ysp(maxspl, maxsplen)
** DEBUG  :          175  2.7520000E-03  xsp2(maxspl, maxsplen)
** DEBUG  :          175  2.7520000E-03  ysp2(maxspl, maxsplen)
