* Deltares, D-Flow FM Version 1.2.75.65141M, Oct 11 2019, 10:46:47
* Source: https://svn.oss.deltares.nl/repos/delft3d/trunk/
* File creation date: 19:38:03, 01-11-2019
** INFO   : Command: "D:\projects\dflowutil\tests\dflowutil_test_data\DFM\dflowfm-cli.exe"
** INFO   : Opened file : unstruc.hlp
** INFO   : Closed file : unstruc.hlp
** INFO   : Opened file : ISOCOLOUR.hls
** INFO   : Using Local FileISOCOLOUR.hls
** INFO   : Closed file : ISOCOLOUR.hls
** INFO   : Opened file : ISOCOLOUR.hls
** INFO   : Using Local FileISOCOLOUR.hls
** INFO   : Closed file : ISOCOLOUR.hls
** INFO   :  MAXIMUM NUMBER OF LINKS         :            2
** INFO   :  MAXIMUM NUMBER OF NODES         :            0
** INFO   :  RESOLUTION GRAPHICS SCREEN      :         1600         990
** INFO   :  RESOLUTION TEXT     SCREEN      :          200          66
** INFO   :  NUMBER OF COLOURS AVAILABLE     :          256
** DEBUG  :            0  0.1000020      NOD(KMAX)
** DEBUG  :            6  0.7000140      XK (KMAX), YK (KMAX), ZK (KMAX), KC (KMAX), NMK (KMAX), RNOD(KMAX)
** INFO   : Load MDU-file                    (*.mdu)
** INFO   : Opened file : current_situation.mdu
** INFO   : Closed file : current_situation.mdu
** DEBUG  :            7  0.1000020      NOD(KMAX)
** DEBUG  :           12  0.7000140      XK (KMAX), YK (KMAX), ZK (KMAX), KC (KMAX), NMK (KMAX), RNOD(KMAX)
** DEBUG  :           12  1.4400000E-03  xsp(maxspl, maxsplen)
** DEBUG  :           12  1.4400000E-03  ysp(maxspl, maxsplen)
** DEBUG  :           12  1.4400000E-03  xsp2(maxspl, maxsplen)
** DEBUG  :           12  1.4400000E-03  ysp2(maxspl, maxsplen)
 Until here copy of previous diagnostic file
** WARNING: readMDUFile: [geometry] uniformtyp1dstreetinlets=-2 was in file, but not used. Check possible typo.
** WARNING: readMDUFile: [geometry] uniformtyp1droofgutterpipes=-2 was in file, but not used. Check possible typo.
** WARNING: readMDUFile: [numerics] jaorgsethu=1 was in file, but not used. Check possible typo.
** WARNING: readMDUFile: [physics] effectspiral=0 was in file, but not used. Check possible typo.
** WARNING: readMDUFile: [output] wrishp_enc=0 was in file, but not used. Check possible typo.
** WARNING: readMDUFile: [output] waterlevelclasses=0.0 was in file, but not used. Check possible typo.
** WARNING: readMDUFile: [output] waterdepthclasses=0.0 was in file, but not used. Check possible typo.
** WARNING: readMDUFile: [processes] procesdatabasefile=proc_def.dat was in file, but not used. Check possible typo.
** DEBUG  : Detected old format for 1D ("CF-1.6 UGRID-1.0/Deltares-0.8") in 'stage4_spot_ortho_DFM_reint_net.nc'.
** INFO   : Network UGRID-File: No 1D-Mesh Present, Skipped 1D
** INFO   : Opened file : guayas.ldb
** INFO   : Closed file : guayas.ldb
** INFO   : Opened file : guayas_locations_obs.xyn
** INFO   : Closed file : guayas_locations_obs.xyn
** INFO   : Opened file : bridgepiers_3_thd.pli
** INFO   : Closed file : bridgepiers_3_thd.pli
** INFO   : Start of the computation time loop
** INFO   : Initializing flow model geometry...
** DEBUG  : Opened 'stage4_spot_ortho_DFM_reint_net.nc' as #     65536.
** WARNING: Could not read net cells from NetCDF file 'stage4_spot_ortho_DFM_reint_net.nc' (is not critical). Details follow:
** DEBUG  : NetCDF error: NetCDF: Invalid dimension ID or name (nNetElem)
** DEBUG  :           13  4.0599998E-02  netcell(numpx1)
** DEBUG  :           13  5.1956002E-02  lnn(numl)
** DEBUG  :           14  0.1039120      lne(2,numl)
** DEBUG  :           14  2.4869001E-02  xz(numc)
** DEBUG  :           14  2.4869001E-02  yz(numc)
** DEBUG  :           15  2.4869001E-02  xzw(numc)
** DEBUG  :           15  2.4869001E-02  yzw(numc)
** DEBUG  :           15  2.4869001E-02  ba(numc)
** INFO   : removing dry cells...
** INFO   : Opened file : current_situation_dry.xyz
** INFO   : merged 0 samples in .00 seconds.
** INFO   : Closed file : current_situation_dry.xyz
** INFO   : done in      0.01800 sec.
** INFO   : Finding crossed flowlinks...
** INFO   : done
** INFO   : thin dams with kdtree2, elapsed time:     0.10100    s.
** INFO   : Opened file : FlowFM_DFMWAQ.ext
** DEBUG  :           15  5.1956002E-02  xe (nx)
** DEBUG  :           16  5.1956002E-02  ye (nx)
** DEBUG  :           16  5.1956002E-02  xyen(2, nx)
** DEBUG  :           23  0.8832520      kce(nx), ke(nx), kez(nx), keu(nx), kes(nx), ketm(nx), kesd(nx), keuxy(nx), ket(nx), ken(nx), ke1d2d(nx), keg(nx), ked(nx), kep(nx), kedb(nx), keklep(nx), kevalv(nx), kegs(nx), kegen(nx), itpez(nx), itpenz(nx), itpeu(nx) , itpenu(nx), kew(nx), ftpet(nx)
** DEBUG  :           24  5.1956002E-02  ketr(nx,1)
** DEBUG  :           24  5.1956002E-02  kesf(1,nx)
** INFO   : Opened file : d:\projects\dflowutil\tests\DSD\00_src\sea_boundary.pli
** INFO   : Closed file : d:\projects\dflowutil\tests\DSD\00_src\sea_boundary.pli
** INFO   : boundary: 'd:\projects\dflowutil\tests\DSD\00_src\sea_boundary.pli' opened 61 cells.
** INFO   : waterlevelbnd d:\projects\dflowutil\tests\DSD\00_src\sea_boundary.pli      61 nr of open bndcells
** INFO   : Opened file : d:\projects\dflowutil\tests\DSD\00_src\sea_boundary.pli
** INFO   : Closed file : d:\projects\dflowutil\tests\DSD\00_src\sea_boundary.pli
** INFO   : boundary: 'd:\projects\dflowutil\tests\DSD\00_src\sea_boundary.pli' opened 61 cells.
** INFO   : salinitybndd:\projects\dflowutil\tests\DSD\00_src\sea_boundary.pli      61nr of salinity bndcells
** INFO   : Opened file : d:\projects\dflowutil\tests\DSD\00_src\daule.pli
** INFO   : Closed file : d:\projects\dflowutil\tests\DSD\00_src\daule.pli
** INFO   : boundary: 'd:\projects\dflowutil\tests\DSD\00_src\daule.pli' opened 3 cells.
** INFO   : salinitybndd:\projects\dflowutil\tests\DSD\00_src\daule.pli       3nr of salinity bndcells
** INFO   : Opened file : d:\projects\dflowutil\tests\DSD\00_src\daule.pli
** INFO   : Closed file : d:\projects\dflowutil\tests\DSD\00_src\daule.pli
** INFO   : boundary: 'd:\projects\dflowutil\tests\DSD\00_src\daule.pli' opened 3 cells.
** INFO   : dischargebnd d:\projects\dflowutil\tests\DSD\00_src\daule.pli       3 nr of open bndcells
** INFO   : Opened file : d:\projects\dflowutil\tests\DSD\00_src\babahoyo.pli
** INFO   : Closed file : d:\projects\dflowutil\tests\DSD\00_src\babahoyo.pli
** INFO   : boundary: 'd:\projects\dflowutil\tests\DSD\00_src\babahoyo.pli' opened 4 cells.
** INFO   : salinitybndd:\projects\dflowutil\tests\DSD\00_src\babahoyo.pli       4nr of salinity bndcells
** INFO   : Opened file : d:\projects\dflowutil\tests\DSD\00_src\babahoyo.pli
** INFO   : Closed file : d:\projects\dflowutil\tests\DSD\00_src\babahoyo.pli
** INFO   : boundary: 'd:\projects\dflowutil\tests\DSD\00_src\babahoyo.pli' opened 4 cells.
** INFO   : dischargebnd d:\projects\dflowutil\tests\DSD\00_src\babahoyo.pli       4 nr of open bndcells
** INFO   : Opened file : sea_boundaryOXY.pli
** INFO   : Closed file : sea_boundaryOXY.pli
** INFO   : boundary: 'sea_boundaryOXY.pli' opened 61 cells.
** INFO   : tracerbndOXY sea_boundaryOXY.pli      61nr of tracer bndcells
** INFO   : Opened file : sea_boundaryCBOD5.pli
** INFO   : Closed file : sea_boundaryCBOD5.pli
** INFO   : boundary: 'sea_boundaryCBOD5.pli' opened 61 cells.
** INFO   : tracerbndCBOD5 sea_boundaryCBOD5.pli      61nr of tracer bndcells
** INFO   : Opened file : sea_boundaryCOD_Cr.pli
** INFO   : Closed file : sea_boundaryCOD_Cr.pli
** INFO   : boundary: 'sea_boundaryCOD_Cr.pli' opened 61 cells.
** INFO   : tracerbndCOD_Cr sea_boundaryCOD_Cr.pli      61nr of tracer bndcells
** INFO   : Opened file : sea_boundaryNBOD5.pli
** INFO   : Closed file : sea_boundaryNBOD5.pli
** INFO   : boundary: 'sea_boundaryNBOD5.pli' opened 61 cells.
** INFO   : tracerbndNBOD5 sea_boundaryNBOD5.pli      61nr of tracer bndcells
** INFO   : Opened file : sea_boundaryIM1.pli
** INFO   : Closed file : sea_boundaryIM1.pli
** INFO   : boundary: 'sea_boundaryIM1.pli' opened 61 cells.
** INFO   : tracerbndIM1 sea_boundaryIM1.pli      61nr of tracer bndcells
** INFO   : Opened file : sea_boundaryNH4.pli
** INFO   : Closed file : sea_boundaryNH4.pli
** INFO   : boundary: 'sea_boundaryNH4.pli' opened 61 cells.
** INFO   : tracerbndNH4 sea_boundaryNH4.pli      61nr of tracer bndcells
** INFO   : Opened file : sea_boundaryNO3.pli
** INFO   : Closed file : sea_boundaryNO3.pli
** INFO   : boundary: 'sea_boundaryNO3.pli' opened 61 cells.
** INFO   : tracerbndNO3 sea_boundaryNO3.pli      61nr of tracer bndcells
** INFO   : Opened file : sea_boundaryPO4.pli
** INFO   : Closed file : sea_boundaryPO4.pli
** INFO   : boundary: 'sea_boundaryPO4.pli' opened 61 cells.
** INFO   : tracerbndPO4 sea_boundaryPO4.pli      61nr of tracer bndcells
** INFO   : Opened file : sea_boundaryAAP.pli
** INFO   : Closed file : sea_boundaryAAP.pli
** INFO   : boundary: 'sea_boundaryAAP.pli' opened 61 cells.
** INFO   : tracerbndAAP sea_boundaryAAP.pli      61nr of tracer bndcells
** INFO   : Opened file : sea_boundarySO4.pli
** INFO   : Closed file : sea_boundarySO4.pli
** INFO   : boundary: 'sea_boundarySO4.pli' opened 61 cells.
** INFO   : tracerbndSO4 sea_boundarySO4.pli      61nr of tracer bndcells
** INFO   : Opened file : sea_boundarySUD.pli
** INFO   : Closed file : sea_boundarySUD.pli
** INFO   : boundary: 'sea_boundarySUD.pli' opened 61 cells.
** INFO   : tracerbndSUD sea_boundarySUD.pli      61nr of tracer bndcells
** INFO   : Opened file : sea_boundaryPOC1.pli
** INFO   : Closed file : sea_boundaryPOC1.pli
** INFO   : boundary: 'sea_boundaryPOC1.pli' opened 61 cells.
** INFO   : tracerbndPOC1 sea_boundaryPOC1.pli      61nr of tracer bndcells
** INFO   : Opened file : sea_boundaryPON1.pli
** INFO   : Closed file : sea_boundaryPON1.pli
** INFO   : boundary: 'sea_boundaryPON1.pli' opened 61 cells.
** INFO   : tracerbndPON1 sea_boundaryPON1.pli      61nr of tracer bndcells
** INFO   : Opened file : sea_boundaryPOP1.pli
** INFO   : Closed file : sea_boundaryPOP1.pli
** INFO   : boundary: 'sea_boundaryPOP1.pli' opened 61 cells.
** INFO   : tracerbndPOP1 sea_boundaryPOP1.pli      61nr of tracer bndcells
** INFO   : Opened file : sea_boundaryDiat.pli
** INFO   : Closed file : sea_boundaryDiat.pli
** INFO   : boundary: 'sea_boundaryDiat.pli' opened 61 cells.
** INFO   : tracerbndDiat sea_boundaryDiat.pli      61nr of tracer bndcells
** INFO   : Opened file : sea_boundaryGreen.pli
** INFO   : Closed file : sea_boundaryGreen.pli
** INFO   : boundary: 'sea_boundaryGreen.pli' opened 61 cells.
** INFO   : tracerbndGreen sea_boundaryGreen.pli      61nr of tracer bndcells
** INFO   : Opened file : sea_boundaryFColi.pli
** INFO   : Closed file : sea_boundaryFColi.pli
** INFO   : boundary: 'sea_boundaryFColi.pli' opened 61 cells.
** INFO   : tracerbndFColi sea_boundaryFColi.pli      61nr of tracer bndcells
** INFO   : Opened file : sea_boundaryCd.pli
** INFO   : Closed file : sea_boundaryCd.pli
** INFO   : boundary: 'sea_boundaryCd.pli' opened 61 cells.
** INFO   : tracerbndCd sea_boundaryCd.pli      61nr of tracer bndcells
** INFO   : Opened file : sea_boundaryCu.pli
** INFO   : Closed file : sea_boundaryCu.pli
** INFO   : boundary: 'sea_boundaryCu.pli' opened 61 cells.
** INFO   : tracerbndCu sea_boundaryCu.pli      61nr of tracer bndcells
** INFO   : Opened file : sea_boundaryZn.pli
** INFO   : Closed file : sea_boundaryZn.pli
** INFO   : boundary: 'sea_boundaryZn.pli' opened 61 cells.
** INFO   : tracerbndZn sea_boundaryZn.pli      61nr of tracer bndcells
** INFO   : Opened file : sea_boundaryOMP.pli
** INFO   : Closed file : sea_boundaryOMP.pli
** INFO   : boundary: 'sea_boundaryOMP.pli' opened 61 cells.
** INFO   : tracerbndOMP sea_boundaryOMP.pli      61nr of tracer bndcells
** INFO   : Opened file : dauleOXY.pli
** INFO   : Closed file : dauleOXY.pli
** INFO   : boundary: 'dauleOXY.pli' opened 3 cells.
** INFO   : tracerbndOXY dauleOXY.pli       3nr of tracer bndcells
** INFO   : Opened file : dauleCBOD5.pli
** INFO   : Closed file : dauleCBOD5.pli
** INFO   : boundary: 'dauleCBOD5.pli' opened 3 cells.
** INFO   : tracerbndCBOD5 dauleCBOD5.pli       3nr of tracer bndcells
** INFO   : Opened file : dauleCOD_Cr.pli
** INFO   : Closed file : dauleCOD_Cr.pli
** INFO   : boundary: 'dauleCOD_Cr.pli' opened 3 cells.
** INFO   : tracerbndCOD_Cr dauleCOD_Cr.pli       3nr of tracer bndcells
** INFO   : Opened file : dauleNBOD5.pli
** INFO   : Closed file : dauleNBOD5.pli
** INFO   : boundary: 'dauleNBOD5.pli' opened 3 cells.
** INFO   : tracerbndNBOD5 dauleNBOD5.pli       3nr of tracer bndcells
** INFO   : Opened file : dauleIM1.pli
** INFO   : Closed file : dauleIM1.pli
** INFO   : boundary: 'dauleIM1.pli' opened 3 cells.
** INFO   : tracerbndIM1 dauleIM1.pli       3nr of tracer bndcells
** INFO   : Opened file : dauleNH4.pli
** INFO   : Closed file : dauleNH4.pli
** INFO   : boundary: 'dauleNH4.pli' opened 3 cells.
** INFO   : tracerbndNH4 dauleNH4.pli       3nr of tracer bndcells
** INFO   : Opened file : dauleNO3.pli
** INFO   : Closed file : dauleNO3.pli
** INFO   : boundary: 'dauleNO3.pli' opened 3 cells.
** INFO   : tracerbndNO3 dauleNO3.pli       3nr of tracer bndcells
** INFO   : Opened file : daulePO4.pli
** INFO   : Closed file : daulePO4.pli
** INFO   : boundary: 'daulePO4.pli' opened 3 cells.
** INFO   : tracerbndPO4 daulePO4.pli       3nr of tracer bndcells
** INFO   : Opened file : dauleAAP.pli
** INFO   : Closed file : dauleAAP.pli
** INFO   : boundary: 'dauleAAP.pli' opened 3 cells.
** INFO   : tracerbndAAP dauleAAP.pli       3nr of tracer bndcells
** INFO   : Opened file : dauleSO4.pli
** INFO   : Closed file : dauleSO4.pli
** INFO   : boundary: 'dauleSO4.pli' opened 3 cells.
** INFO   : tracerbndSO4 dauleSO4.pli       3nr of tracer bndcells
** INFO   : Opened file : dauleSUD.pli
** INFO   : Closed file : dauleSUD.pli
** INFO   : boundary: 'dauleSUD.pli' opened 3 cells.
** INFO   : tracerbndSUD dauleSUD.pli       3nr of tracer bndcells
** INFO   : Opened file : daulePOC1.pli
** INFO   : Closed file : daulePOC1.pli
** INFO   : boundary: 'daulePOC1.pli' opened 3 cells.
** INFO   : tracerbndPOC1 daulePOC1.pli       3nr of tracer bndcells
** INFO   : Opened file : daulePON1.pli
** INFO   : Closed file : daulePON1.pli
** INFO   : boundary: 'daulePON1.pli' opened 3 cells.
** INFO   : tracerbndPON1 daulePON1.pli       3nr of tracer bndcells
** INFO   : Opened file : daulePOP1.pli
** INFO   : Closed file : daulePOP1.pli
** INFO   : boundary: 'daulePOP1.pli' opened 3 cells.
** INFO   : tracerbndPOP1 daulePOP1.pli       3nr of tracer bndcells
** INFO   : Opened file : dauleDiat.pli
** INFO   : Closed file : dauleDiat.pli
** INFO   : boundary: 'dauleDiat.pli' opened 3 cells.
** INFO   : tracerbndDiat dauleDiat.pli       3nr of tracer bndcells
** INFO   : Opened file : dauleGreen.pli
** INFO   : Closed file : dauleGreen.pli
** INFO   : boundary: 'dauleGreen.pli' opened 3 cells.
** INFO   : tracerbndGreen dauleGreen.pli       3nr of tracer bndcells
** INFO   : Opened file : dauleFColi.pli
** INFO   : Closed file : dauleFColi.pli
** INFO   : boundary: 'dauleFColi.pli' opened 3 cells.
** INFO   : tracerbndFColi dauleFColi.pli       3nr of tracer bndcells
** INFO   : Opened file : dauleCd.pli
** INFO   : Closed file : dauleCd.pli
** INFO   : boundary: 'dauleCd.pli' opened 3 cells.
** INFO   : tracerbndCd dauleCd.pli       3nr of tracer bndcells
** INFO   : Opened file : dauleCu.pli
** INFO   : Closed file : dauleCu.pli
** INFO   : boundary: 'dauleCu.pli' opened 3 cells.
** INFO   : tracerbndCu dauleCu.pli       3nr of tracer bndcells
** INFO   : Opened file : dauleZn.pli
** INFO   : Closed file : dauleZn.pli
** INFO   : boundary: 'dauleZn.pli' opened 3 cells.
** INFO   : tracerbndZn dauleZn.pli       3nr of tracer bndcells
** INFO   : Opened file : dauleOMP.pli
** INFO   : Closed file : dauleOMP.pli
** INFO   : boundary: 'dauleOMP.pli' opened 3 cells.
** INFO   : tracerbndOMP dauleOMP.pli       3nr of tracer bndcells
** INFO   : Opened file : babahoyoOXY.pli
** INFO   : Closed file : babahoyoOXY.pli
** INFO   : boundary: 'babahoyoOXY.pli' opened 4 cells.
** INFO   : tracerbndOXY babahoyoOXY.pli       4nr of tracer bndcells
** INFO   : Opened file : babahoyoCBOD5.pli
** INFO   : Closed file : babahoyoCBOD5.pli
** INFO   : boundary: 'babahoyoCBOD5.pli' opened 4 cells.
** INFO   : tracerbndCBOD5 babahoyoCBOD5.pli       4nr of tracer bndcells
** INFO   : Opened file : babahoyoCOD_Cr.pli
** INFO   : Closed file : babahoyoCOD_Cr.pli
** INFO   : boundary: 'babahoyoCOD_Cr.pli' opened 4 cells.
** INFO   : tracerbndCOD_Cr babahoyoCOD_Cr.pli       4nr of tracer bndcells
** INFO   : Opened file : babahoyoNBOD5.pli
** INFO   : Closed file : babahoyoNBOD5.pli
** INFO   : boundary: 'babahoyoNBOD5.pli' opened 4 cells.
** INFO   : tracerbndNBOD5 babahoyoNBOD5.pli       4nr of tracer bndcells
** INFO   : Opened file : babahoyoIM1.pli
** INFO   : Closed file : babahoyoIM1.pli
** INFO   : boundary: 'babahoyoIM1.pli' opened 4 cells.
** INFO   : tracerbndIM1 babahoyoIM1.pli       4nr of tracer bndcells
** INFO   : Opened file : babahoyoNH4.pli
** INFO   : Closed file : babahoyoNH4.pli
** INFO   : boundary: 'babahoyoNH4.pli' opened 4 cells.
** INFO   : tracerbndNH4 babahoyoNH4.pli       4nr of tracer bndcells
** INFO   : Opened file : babahoyoNO3.pli
** INFO   : Closed file : babahoyoNO3.pli
** INFO   : boundary: 'babahoyoNO3.pli' opened 4 cells.
** INFO   : tracerbndNO3 babahoyoNO3.pli       4nr of tracer bndcells
** INFO   : Opened file : babahoyoPO4.pli
** INFO   : Closed file : babahoyoPO4.pli
** INFO   : boundary: 'babahoyoPO4.pli' opened 4 cells.
** INFO   : tracerbndPO4 babahoyoPO4.pli       4nr of tracer bndcells
** INFO   : Opened file : babahoyoAAP.pli
** INFO   : Closed file : babahoyoAAP.pli
** INFO   : boundary: 'babahoyoAAP.pli' opened 4 cells.
** INFO   : tracerbndAAP babahoyoAAP.pli       4nr of tracer bndcells
** INFO   : Opened file : babahoyoSO4.pli
** INFO   : Closed file : babahoyoSO4.pli
** INFO   : boundary: 'babahoyoSO4.pli' opened 4 cells.
** INFO   : tracerbndSO4 babahoyoSO4.pli       4nr of tracer bndcells
** INFO   : Opened file : babahoyoSUD.pli
** INFO   : Closed file : babahoyoSUD.pli
** INFO   : boundary: 'babahoyoSUD.pli' opened 4 cells.
** INFO   : tracerbndSUD babahoyoSUD.pli       4nr of tracer bndcells
** INFO   : Opened file : babahoyoPOC1.pli
** INFO   : Closed file : babahoyoPOC1.pli
** INFO   : boundary: 'babahoyoPOC1.pli' opened 4 cells.
** INFO   : tracerbndPOC1 babahoyoPOC1.pli       4nr of tracer bndcells
** INFO   : Opened file : babahoyoPON1.pli
** INFO   : Closed file : babahoyoPON1.pli
** INFO   : boundary: 'babahoyoPON1.pli' opened 4 cells.
** INFO   : tracerbndPON1 babahoyoPON1.pli       4nr of tracer bndcells
** INFO   : Opened file : babahoyoPOP1.pli
** INFO   : Closed file : babahoyoPOP1.pli
** INFO   : boundary: 'babahoyoPOP1.pli' opened 4 cells.
** INFO   : tracerbndPOP1 babahoyoPOP1.pli       4nr of tracer bndcells
** INFO   : Opened file : babahoyoDiat.pli
** INFO   : Closed file : babahoyoDiat.pli
** INFO   : boundary: 'babahoyoDiat.pli' opened 4 cells.
** INFO   : tracerbndDiat babahoyoDiat.pli       4nr of tracer bndcells
** INFO   : Opened file : babahoyoGreen.pli
** INFO   : Closed file : babahoyoGreen.pli
** INFO   : boundary: 'babahoyoGreen.pli' opened 4 cells.
** INFO   : tracerbndGreen babahoyoGreen.pli       4nr of tracer bndcells
** INFO   : Opened file : babahoyoFColi.pli
** INFO   : Closed file : babahoyoFColi.pli
** INFO   : boundary: 'babahoyoFColi.pli' opened 4 cells.
** INFO   : tracerbndFColi babahoyoFColi.pli       4nr of tracer bndcells
** INFO   : Opened file : babahoyoCd.pli
** INFO   : Closed file : babahoyoCd.pli
** INFO   : boundary: 'babahoyoCd.pli' opened 4 cells.
** INFO   : tracerbndCd babahoyoCd.pli       4nr of tracer bndcells
** INFO   : Opened file : babahoyoCu.pli
** INFO   : Closed file : babahoyoCu.pli
** INFO   : boundary: 'babahoyoCu.pli' opened 4 cells.
** INFO   : tracerbndCu babahoyoCu.pli       4nr of tracer bndcells
** INFO   : Opened file : babahoyoZn.pli
** INFO   : Closed file : babahoyoZn.pli
** INFO   : boundary: 'babahoyoZn.pli' opened 4 cells.
** INFO   : tracerbndZn babahoyoZn.pli       4nr of tracer bndcells
** INFO   : Opened file : babahoyoOMP.pli
** INFO   : Closed file : babahoyoOMP.pli
** INFO   : boundary: 'babahoyoOMP.pli' opened 4 cells.
** INFO   : tracerbndOMP babahoyoOMP.pli       4nr of tracer bndcells
** DEBUG  :           26  0.1988720      nd(ndx), bl(ndx), bai(ndx), bai_mor(ndx), ba_mor(ndx), kcs(ndx)
** DEBUG  :           29  9.1920003E-02  ln   (2,lnx)
** DEBUG  :           29  9.1920003E-02  lncn (2,lnx)
** DEBUG  :           30  9.1920003E-02  bob  (2,lnx)
** DEBUG  :           31  9.1920003E-02  bob0  (2,lnx)
** DEBUG  :           31  4.5960002E-02  dx   (  lnx)
** DEBUG  :           32  4.5960002E-02  dxi  (  lnx)
** DEBUG  :           32  4.5960002E-02  wu   (  lnx)
** DEBUG  :           32  4.5960002E-02  wu_mor (  lnx)
** DEBUG  :           33  4.5960002E-02  wui  (  lnx)
** DEBUG  :           33  4.5960002E-02  kcu  (  lnx)
** DEBUG  :           34  4.5960002E-02  csu  (  lnx)
** DEBUG  :           34  4.5960002E-02  snu  (  lnx)
** DEBUG  :           34  4.5960002E-02  acl  (  lnx)
** DEBUG  :           35  4.5960002E-02  acn  (2,lnx)
** DEBUG  :           35  4.5960002E-02  iadv   (lnx)
** DEBUG  :           35  4.5960002E-02  teta   (lnx)
** DEBUG  :           36  4.5960002E-02  ibot   (lnx)
** DEBUG  :           37  0.1378800      xu(lnx), yu(lnx) , blu(lnx)
** DEBUG  :           37  5.1956002E-02  ln2lne (nex)
** DEBUG  :           38  5.1956002E-02  lne2ln (nex)
** DEBUG  : addexternalboundarypoints: added 0 bnd points for SOBEK1D-FM2D connections.
** DEBUG  :           39  2.7067000E-02   cn (numk)
** DEBUG  :           39  2.7067000E-02  ucnx(numk)
** DEBUG  :           39  2.7067000E-02  ucny(numk)
** DEBUG  :           39  2.7067000E-02  ban (numk)
** INFO   : setbedlevelfromextfile: Using bedlevel as specified in net-file.
** DEBUG  :           40  4.5960002E-02  wcnx3(lnx)
** DEBUG  :           40  4.5960002E-02  wcny3(lnx)
** DEBUG  :           40  4.5960002E-02  wcnx4(lnx)
** DEBUG  :           41  4.5960002E-02  wcny4(lnx)
** DEBUG  :           41  8.1201002E-02  wcnxy(3,numk)
** DEBUG  :           42  2.7067000E-02  jacorner(numk)
** DEBUG  :           42  5.8680000E-03  cscnw(nrcnw)
** DEBUG  :           42  5.8680000E-03  sncnw(nrcnw)
** DEBUG  :           42  5.8680000E-03   kcnw(nrcnw)
** DEBUG  :           42  1.1736000E-02   nwalcnw(2,nrcnw)
** DEBUG  :           42  5.8680000E-03   sfcnw(nrcnw)
** DEBUG  :           42  2.4859000E-02  numlimdt(ndx)
** DEBUG  :           43  9.9705003E-02  walls(17,nw)
** DEBUG  :           43  4.5960002E-02  wcx1(lnx)
** DEBUG  :           44  4.5960002E-02  wcy1(lnx)
** DEBUG  :           44  4.5960002E-02  wcx2(lnx)
** DEBUG  :           44  4.5960002E-02  wcy2(lnx)
** DEBUG  :           45  4.9718000E-02  wcxy (2,ndx)
** DEBUG  :           46  9.1920003E-02  wcL  (2,Lnx)
** DEBUG  :           46  2.4859000E-02  wc     (ndx)
** DEBUG  :           47  9.7736999E-02  banf(mxban)
** DEBUG  :           48  9.7736999E-02  nban(4,mxban)
** DEBUG  :           49  9.7736999E-02  rr(mxban), nr(mxban)
** DEBUG  :           50  9.7736999E-02  banh (mxban)
** DEBUG  :           50  9.7736999E-02  nbanh(4,mxban)
** INFO   : Done initializing flow model geometry.
** DEBUG  :           51  4.9718000E-02  s0  (ndx) , s1  (ndx)
** DEBUG  :           51  4.9718000E-02  a0  (ndx) , a1  (ndx)
** DEBUG  :           52  4.9718000E-02  hs  (ndx) , s00 (ndx)
** DEBUG  :           52  2.4859000E-02  cfs (ndx)
** DEBUG  :           52  2.4859000E-02  kbot (ndx)
** DEBUG  :           52  2.4859000E-02  ktop (ndx)
** DEBUG  :           52  2.4859000E-02  ktop0(ndx)
** DEBUG  :           53  2.4859000E-02  kmxn (ndx)
** DEBUG  :           53  4.5960002E-02  Lbot (Lnx)
** DEBUG  :           53  4.5960002E-02  Ltop (Lnx)
** DEBUG  :           54  4.5960002E-02  kmxL (Lnx)
** DEBUG  :           54  4.5960002E-02  ustb  (lnx)
** DEBUG  :           54  4.5960002E-02  ustw  (lnx)
** DEBUG  :           55  2.4859000E-02  laydefnr(ndx)
** DEBUG  :           55  4.9718000E-02  ucx (ndkx) , ucy (ndkx)
** DEBUG  :           55  4.9718000E-02  uqcx(ndkx) , uqcy(ndkx)
** DEBUG  :           56  4.9718000E-02  ucxq(ndkx) , ucyq(ndkx)
** DEBUG  :           56  4.9718000E-02  qin (ndkx) , vih (ndkx)
** DEBUG  :           57  4.9718000E-02  dvxc(ndkx) , dvyc(ndkx)
** DEBUG  :           57  2.4859000E-02  squ (ndkx)
** DEBUG  :           57  2.4859000E-02  sqi (ndkx)
** DEBUG  :           57  2.4859000E-02  sq  (ndkx)
** DEBUG  :           57  2.4859000E-02  sqa (ndkx)
** DEBUG  :           58  2.4859000E-02  vol0(ndkx)
** DEBUG  :           58  2.4859000E-02  vol1(ndkx)
** DEBUG  :           58  2.4859000E-02  vol1_f(ndkx)
** DEBUG  :           58  2.4859000E-02  volerror(ndkx)
** DEBUG  :           58  2.4859000E-02  dtcell(ndkx)
** DEBUG  :           59  2.4859000E-02  rho (ndkx)
** DEBUG  :           59  4.5960002E-02  dpbdx0 (lnkx)
** DEBUG  :           59  2.4859000E-02  workx (ndkx)
** DEBUG  :           59  2.4859000E-02  worky (ndkx)
** DEBUG  :           60  4.5960002E-02  work0 (0:max(kmx,1),max(ndx,lnx))
** DEBUG  :           60  4.5960002E-02  work1 (max(kmx,1),max(ndx,lnx))
** DEBUG  :           60  2.4859000E-02  tidep (1,ndx)
** DEBUG  :           61  4.5960002E-02  z0ucur(lnx)
** DEBUG  :           61  4.5960002E-02  z0urou(lnx)
** DEBUG  :           61  4.5960002E-02  cfuhi(lnx)
** DEBUG  :           62  4.5960002E-02  frcu (lnx)
** DEBUG  :           62  4.5960002E-02  frcu_mor (lnx)
** DEBUG  :           63  4.5960002E-02  ifrcutp(lnx)
** DEBUG  :           63  4.5960002E-02  wdsu  (lnx)
** DEBUG  :           63  4.5960002E-02  u0   (lnkx)
** DEBUG  :           64  4.5960002E-02  u1   (lnkx)
** DEBUG  :           64  4.5960002E-02  q1   (lnkx)
** DEBUG  :           64  4.5960002E-02  qa   (lnkx)
** DEBUG  :           65  4.5960002E-02  v    (lnkx)
** DEBUG  :           65  4.5960002E-02  ucxu (lnkx)
** DEBUG  :           65  4.5960002E-02  ucyu (lnkx)
** DEBUG  :           66  4.5960002E-02  hu   (lnkx)
** DEBUG  :           66  4.5960002E-02  huvli(lnkx)
** DEBUG  :           67  4.5960002E-02  au   (lnkx)
** DEBUG  :           67  4.5960002E-02  viu  (lnkx)
** DEBUG  :           67  4.5960002E-02  vicLu(lnkx)
** DEBUG  :           68  4.5960002E-02  suu  (lnkx)
** DEBUG  :           68  4.5960002E-02  advi (lnkx)
** DEBUG  :           68  4.5960002E-02  adve (lnkx)
** DEBUG  :           69  4.5960002E-02  plotlin(max(lnkx,ndkx))
** DEBUG  :           69  2.4859000E-02  czs(ndx)
** DEBUG  :           69  2.4859000E-02  bb   (ndx )
** DEBUG  :           69  2.4859000E-02  dd   (ndx )
** DEBUG  :           70  2.4859000E-02  fu   (lnkx)
** DEBUG  :           70  2.4859000E-02  ru   (lnkx)
** DEBUG  :           70  2.4859000E-02  sa1 (ndkx)
** DEBUG  :           70  2.4859000E-02  rich(lnkx)
** INFO   : Initialising water quality processes
** INFO   : Water quality timers switched on
** ERROR  : No process library file specified. Use commandline argument --processlibrary "<path>/<name>"
** INFO   : Closed file : FlowFM_DFMWAQ.ext
